data/inputs/nesta_case6470_rte.m
%%%%%%%%%%%%%%%%%%%%%%%%%%%%%%%%%%%%%%%%%%%%%%%%%%%%%%%%%%%%%%%%%%%%%%%%%%%
%%%%                                                                  %%%%%
%%%%      NICTA Energy System Test Case Archive (NESTA) - v0.7.0      %%%%%
%%%%              Optimal Power Flow - Typical Operation              %%%%%
%%%%                         05 - June - 2017                         %%%%%
%%%%                                                                  %%%%%
%%%%%%%%%%%%%%%%%%%%%%%%%%%%%%%%%%%%%%%%%%%%%%%%%%%%%%%%%%%%%%%%%%%%%%%%%%%
%
%CASE6470RTE
%   AC Power flow data for French system.
%   Please see CASEFORMAT for details on the case file format.
%
%   This case accurately represents the size and complexity of French
%   very high voltage and high voltage transmission network.
%   These data are snapshots of French VHV+HV grid in 2013.
%   These data can be used to validate mathematical methods and tools.
%   These data should NOT be used for operation
%   nor planning of the French or European grids.
%
%   When publishing results using this data, please cite:
%     C. Josz, S. Fliscounakis, J. Maeght, and P. Panciatici,
%     "AC Power Flow Data in MATPOWER and QCQP Format: iTesla, RTE Snapshots, and PEGASE"
%     http://arxiv.org/abs/1603.01533
%
%   Contacts (primary contact for this file : Jean Maeght):
%   Cédric Josz, Stéphane Fliscounakis, Jean Maeght, Patrick Panciatici
%   firstname.lastname@rte-france.com
%   Réseau de Transport d'Electricité (French Transmission System Operator)
%   Département Expertise Système, Immeuble "Le Colbert"
%   9 rue de la Porte de Buc, 78000 Versailles Cedex, France
%   March 4th, 2016
%
function mpc = nesta_case6470_rte
mpc.version = '2';
mpc.baseMVA = 100.0;

%% bus data
%	bus_i	type	Pd	Qd	Gs	Bs	area	Vm	Va	baseKV	zone	Vmax	Vmin
mpc.bus = [
	1	 1	 0.0	 0.0	 0.0	 0.0	 1	    0.99311	  -12.41261	 45.0	 1	    1.00000	    0.88889;
	2	 1	 0.0	 0.0	 0.0	 0.0	 1	    1.04571	   -9.43079	 63.0	 1	    1.06349	    0.93651;
	3	 1	 12.5	 -0.7	 0.0	 0.0	 1	    1.01874	  -16.03685	 63.0	 1	    1.07937	    0.95238;
	4	 1	 44.7	 -0.9	 0.0	 0.0	 1	    1.06012	   -9.66149	 90.0	 1	    1.08889	    0.93333;
	5	 1	 12.0	 0.1	 0.0	 0.0	 1	    1.02520	  -29.34306	 63.0	 1	    1.06349	    0.95238;
	6	 1	 13.0	 4.3	 0.0	 0.0	 1	    1.04478	  -12.67821	 63.0	 1	    1.07937	    0.92063;
	7	 1	 1.2	 0.8	 0.0	 0.0	 1	    1.05079	  -14.73050	 63.0	 1	    1.07937	    0.92063;
	8	 1	 25.8	 4.9	 0.0	 0.0	 1	    1.07136	   -9.57320	 225.0	 1	    1.08889	    0.88889;
	9	 1	 12.9	 0.0	 0.0	 0.0	 1	    1.04894	  -19.29883	 63.0	 1	    1.06349	    0.93651;
	10	 1	 0.0	 0.0	 0.0	 0.0	 1	    1.04248	  -12.75920	 90.0	 1	    1.07778	    0.92222;
	11	 1	 28.8	 1.1	 0.0	 0.0	 1	    1.04248	  -12.75919	 90.0	 1	    1.07778	    0.92222;
	12	 1	 0.0	 0.0	 0.0	 0.0	 1	    1.02766	   -5.61539	 63.0	 1	    1.07937	    0.95238;
	13	 1	 0.0	 0.0	 0.0	 0.0	 1	    1.08876	   -1.83209	 380.0	 1	    1.10263	    1.05526;
	14	 1	 51.5	 1.9	 0.0	 0.0	 1	    1.06618	  -13.70496	 90.0	 1	    1.07778	    0.97778;
	15	 1	 0.0	 0.0	 0.0	 0.0	 1	    1.02372	  -17.51604	 63.0	 1	    1.07937	    0.92063;
	16	 1	 13.8	 4.1	 0.0	 0.0	 1	    1.03777	  -21.46386	 63.0	 1	    1.07937	    0.92063;
	17	 1	 13.1	 0.2	 0.0	 0.0	 1	    1.05841	  -17.93277	 90.0	 1	    1.06667	    0.97778;
	18	 1	 0.0	 0.0	 0.0	 0.0	 1	    0.96058	   -6.74186	 45.0	 1	    1.00000	    0.88889;
	19	 1	 1.0	 0.0	 0.0	 0.0	 1	    1.03162	  -14.65478	 63.0	 1	    1.06349	    0.93651;
	20	 1	 0.9	 -21.5	 0.0	 0.0	 1	    0.96155	   -6.77068	 45.0	 1	    1.00000	    0.88889;
	21	 1	 8.3	 -3.3	 0.0	 0.0	 1	    1.04136	  -11.60801	 90.0	 1	    1.06667	    0.97778;
	22	 1	 18.0	 1.1	 0.0	 0.0	 1	    1.04582	   -8.93529	 63.0	 1	    1.07937	    0.95238;
	23	 1	 19.2	 3.4	 0.0	 0.0	 1	    1.04458	   -9.21776	 63.0	 1	    1.06349	    0.93651;
	24	 1	 16.1	 -1.6	 0.0	 0.0	 1	    1.06946	   -6.74380	 90.0	 1	    1.11111	    0.95556;
	25	 1	 59.9	 -3.2	 0.0	 0.0	 1	    1.08461	   -8.98670	 90.0	 1	    1.10000	    0.94444;
	26	 1	 35.1	 8.1	 0.0	 0.0	 1	    1.02875	  -11.55182	 90.0	 1	    1.06667	    0.97778;
	27	 1	 0.0	 0.0	 0.0	 0.0	 1	    1.07193	   -8.00757	 225.0	 1	    1.08444	    1.00444;
	28	 1	 0.7	 0.2	 0.0	 0.0	 1	    1.03874	  -18.07978	 63.0	 1	    1.07937	    0.95238;
	29	 1	 60.1	 2.7	 0.0	 0.0	 1	    1.02619	  -15.67923	 63.0	 1	    1.06349	    0.96825;
	30	 1	 33.5	 -0.9	 0.0	 0.0	 1	    1.04376	  -11.70925	 90.0	 1	    1.08889	    0.93333;
	31	 1	 0.0	 0.0	 0.0	 0.0	 1	    1.05638	   -9.02222	 63.0	 1	    1.06349	    0.93651;
	32	 1	 0.0	 0.0	 0.0	 0.0	 1	    1.05710	   -5.91670	 150.0	 1	    1.10667	    0.90000;
	33	 1	 0.0	 0.0	 0.0	 0.0	 1	    1.07334	   -7.12130	 225.0	 1	    1.08889	    0.93333;
	34	 1	 0.0	 0.0	 0.0	 0.0	 1	    1.07565	   -6.22739	 225.0	 1	    1.08889	    0.93333;
	35	 1	 0.0	 0.0	 0.0	 0.0	 1	    1.08329	   -5.88444	 380.0	 1	    1.10526	    1.03947;
	36	 1	 0.0	 0.0	 0.0	 0.0	 1	    1.07864	   -4.94978	 380.0	 1	    1.10526	    1.03947;
	37	 1	 3.2	 4.3	 0.0	 0.0	 1	    1.01906	  -16.34978	 63.0	 1	    1.07937	    0.92063;
	38	 1	 6.0	 -2.0	 0.0	 0.0	 1	    1.06111	  -13.57862	 63.0	 1	    1.09524	    0.93651;
	39	 1	 41.0	 -3.3	 0.0	 0.0	 1	    1.04607	  -24.23852	 90.0	 1	    1.07778	    0.97778;
	40	 1	 32.6	 0.5	 0.0	 0.0	 1	    1.05890	  -11.90052	 90.0	 1	    1.07778	    0.97778;
	41	 1	 0.0	 0.0	 0.0	 0.0	 1	    1.08695	  -13.64162	 225.0	 1	    1.08889	    1.00444;
	42	 1	 0.0	 0.0	 0.0	 0.0	 1	    1.13240	   -1.71549	 63.0	 1	    1.13259	    0.95238;
	43	 1	 3.6	 2.0	 0.0	 0.0	 1	    1.05082	  -13.84871	 90.0	 1	    1.07778	    0.97778;
	44	 1	 13.0	 -0.7	 0.0	 0.0	 1	    1.00717	  -30.80919	 63.0	 1	    1.06349	    0.95238;
	45	 1	 3.9	 1.7	 0.0	 0.0	 1	    1.01117	  -19.24181	 90.0	 1	    1.06667	    0.97778;
	46	 1	 0.0	 0.0	 0.0	 0.0	 1	    1.03775	  -15.97019	 63.0	 1	    1.06349	    0.93651;
	47	 2	 0.0	 0.0	 0.0	 0.0	 1	    1.05601	  -14.98718	 63.0	 1	    1.06349	    0.93651;
	48	 1	 36.5	 3.4	 0.0	 0.0	 1	    1.06830	   -6.17704	 90.0	 1	    1.07778	    0.92222;
	49	 1	 8.8	 -1.7	 0.0	 0.0	 1	    1.03687	  -13.63362	 63.0	 1	    1.06349	    0.93651;
	50	 1	 0.0	 0.0	 0.0	 0.0	 1	    1.07002	  -15.49179	 63.0	 1	    1.07012	    0.93651;
	51	 1	 0.0	 0.0	 0.0	 0.0	 1	    1.06019	  -11.06325	 225.0	 1	    1.08889	    0.93333;
	52	 1	 5.0	 2.4	 0.0	 0.0	 1	    1.03912	  -20.77641	 90.0	 1	    1.06667	    0.97778;
	53	 1	 2.5	 -0.5	 0.0	 0.0	 1	    1.02458	  -15.10642	 63.0	 1	    1.04762	    0.95238;
	54	 1	 -0.4	 -0.0	 0.0	 0.0	 1	    1.04649	   -8.78063	 90.0	 1	    1.06667	    0.97778;
	55	 1	 37.6	 6.7	 0.0	 0.0	 1	    1.07710	  -15.82168	 225.0	 1	    1.08889	    1.00444;
	56	 1	 52.1	 13.5	 0.0	 0.0	 1	    1.08324	  -13.53717	 225.0	 1	    1.08889	    1.00444;
	57	 2	 0.0	 0.0	 0.0	 0.0	 1	    1.06354	  -13.13708	 63.0	 1	    1.07937	    0.92063;
	58	 1	 130.6	 30.1	 0.0	 0.0	 1	    1.07691	  -15.83840	 225.0	 1	    1.08889	    1.00444;
	59	 1	 5.1	 1.3	 0.0	 0.0	 1	    1.02446	  -14.25540	 63.0	 1	    1.07937	    0.95238;
	60	 1	 0.0	 0.0	 0.0	 0.0	 1	    1.04446	  -10.50155	 63.0	 1	    1.07937	    0.95238;
	61	 1	 39.5	 9.7	 0.0	 0.0	 1	    1.03967	  -11.09550	 63.0	 1	    1.07937	    0.95238;
	62	 1	 0.0	 0.0	 0.0	 0.0	 1	    1.02966	  -10.87395	 63.0	 1	    1.07937	    0.95238;
	63	 1	 15.8	 2.0	 0.0	 0.0	 1	    1.02223	   -5.55199	 63.0	 1	    1.07937	    0.95238;
	64	 1	 62.4	 1.0	 0.0	 0.0	 1	    1.08544	   -5.62620	 225.0	 1	    1.08889	    0.88889;
	65	 1	 11.0	 2.8	 0.0	 0.0	 1	    1.05111	  -11.76557	 63.0	 1	    1.07937	    0.95238;
	66	 1	 13.2	 -7.9	 0.0	 0.0	 1	    1.04256	  -18.78856	 63.0	 1	    1.06349	    0.93651;
	67	 1	 0.0	 0.0	 0.0	 0.0	 1	    1.03664	  -10.67332	 63.0	 1	    1.07937	    0.92063;
	68	 1	 48.1	 -0.1	 0.0	 0.0	 1	    1.03286	  -14.95886	 63.0	 1	    1.06349	    0.93651;
	69	 1	 19.3	 -2.7	 0.0	 0.0	 1	    1.04782	  -31.95089	 63.0	 1	    1.06349	    0.95238;
	70	 1	 10.6	 2.7	 0.0	 0.0	 1	    1.03578	   -2.27342	 63.0	 1	    1.07937	    0.95238;
	71	 1	 62.4	 14.9	 0.0	 0.0	 1	    1.03379	  -17.70849	 63.0	 1	    1.04762	    0.95238;
	72	 1	 0.0	 0.0	 0.0	 0.0	 1	    1.09027	   -6.38083	 225.0	 1	    1.09027	    1.00444;
	73	 1	 0.0	 0.0	 0.0	 0.0	 1	    1.09025	   -6.38070	 225.0	 1	    1.09025	    1.00444;
	74	 1	 50.4	 -9.9	 0.0	 0.0	 1	    1.08525	   -5.65336	 225.0	 1	    1.08889	    0.88889;
	75	 1	 22.3	 1.8	 0.0	 0.0	 1	    1.06501	  -11.57512	 90.0	 1	    1.06730	    0.97778;
	76	 1	 2.6	 -0.4	 0.0	 0.0	 1	    1.08804	   -2.52797	 225.0	 1	    1.08923	    0.98667;
	77	 1	 36.8	 -0.4	 0.0	 0.0	 1	    1.03452	  -14.94387	 63.0	 1	    1.06349	    0.93651;
	78	 1	 0.0	 0.0	 0.0	 0.0	 1	    1.02918	  -15.75084	 63.0	 1	    1.07937	    0.92063;
	79	 1	 0.0	 0.0	 0.0	 0.0	 1	    1.03243	  -13.48114	 63.0	 1	    1.04762	    0.95238;
	80	 1	 32.3	 7.3	 0.0	 0.0	 1	    1.08853	  -13.50557	 225.0	 1	    1.08889	    1.00444;
	81	 1	 36.3	 9.9	 0.0	 0.0	 1	    1.08854	  -13.50569	 225.0	 1	    1.08889	    1.00444;
	82	 1	 11.7	 1.6	 0.0	 0.0	 1	    1.03661	  -14.07696	 63.0	 1	    1.06349	    0.93651;
	83	 1	 77.5	 26.4	 0.0	 0.0	 1	    1.06740	  -14.16534	 225.0	 1	    1.08889	    1.00444;
	84	 1	 -1.6	 -1.2	 0.0	 0.0	 1	    1.05419	   -9.89676	 63.0	 1	    1.06349	    0.93651;
	85	 1	 2.1	 -2.1	 0.0	 0.0	 1	    1.05478	  -10.83997	 63.0	 1	    1.06349	    0.93651;
	86	 1	 48.9	 3.6	 0.0	 0.0	 1	    1.01693	  -25.45461	 90.0	 1	    1.06667	    0.97778;
	87	 1	 0.0	 0.0	 0.0	 0.0	 1	    1.03010	   -5.92730	 63.0	 1	    1.07937	    0.95238;
	88	 1	 13.5	 -0.1	 0.0	 0.0	 1	    1.02880	  -14.46075	 63.0	 1	    1.06349	    0.93651;
	89	 1	 25.4	 0.8	 0.0	 0.0	 1	    1.04371	  -16.39196	 90.0	 1	    1.07778	    0.97778;
	90	 1	 0.4	 -1.4	 0.0	 0.0	 1	    0.96055	   -7.33472	 45.0	 1	    1.00000	    0.88889;
	91	 1	 1.0	 0.0	 0.0	 0.0	 1	    0.95998	   -6.82317	 45.0	 1	    1.00000	    0.88889;
	92	 1	 28.6	 3.2	 0.0	 0.0	 1	    1.03863	  -14.96000	 63.0	 1	    1.06349	    0.96825;
	93	 1	 2.1	 -2.5	 0.0	 0.0	 1	    0.98502	   -7.98350	 45.0	 1	    1.00000	    0.88889;
	94	 1	 17.5	 -4.3	 0.0	 0.0	 1	    1.04816	  -11.91356	 90.0	 1	    1.06667	    0.97778;
	95	 1	 46.5	 7.6	 0.0	 0.0	 1	    1.03346	  -20.11722	 90.0	 1	    1.06667	    0.97778;
	96	 1	 1.5	 -0.7	 0.0	 0.0	 1	    1.05780	   -9.13608	 63.0	 1	    1.06349	    0.93651;
	97	 1	 56.4	 0.9	 0.0	 0.0	 1	    1.06474	  -18.77176	 63.0	 1	    1.07937	    0.92063;
	98	 1	 7.4	 -1.3	 0.0	 0.0	 1	    1.04699	  -13.22248	 63.0	 1	    1.07937	    0.95238;
	99	 1	 26.9	 3.1	 0.0	 0.0	 1	    1.04740	  -10.78776	 63.0	 1	    1.07937	    0.95238;
	100	 1	 53.3	 8.6	 0.0	 0.0	 1	    1.01674	  -16.36439	 63.0	 1	    1.06349	    0.93651;
	101	 1	 17.7	 0.5	 0.0	 0.0	 1	    1.05099	  -11.35096	 63.0	 1	    1.06349	    0.93651;
	102	 2	 0.0	 0.0	 0.0	 0.0	 1	    1.05356	   -8.18614	 63.0	 1	    1.07937	    0.95238;
	103	 1	 18.0	 -1.1	 0.0	 0.0	 1	    1.03973	  -10.25013	 63.0	 1	    1.07937	    0.95238;
	104	 1	 0.0	 0.0	 0.0	 0.0	 1	    1.07966	   -7.59878	 225.0	 1	    1.08889	    0.98667;
	105	 1	 35.5	 1.0	 0.0	 0.0	 1	    1.06324	   -8.30162	 225.0	 1	    1.08889	    0.88889;
	106	 1	 49.8	 7.5	 0.0	 0.0	 1	    1.06107	  -12.28511	 90.0	 1	    1.10000	    0.94444;
	107	 1	 77.6	 8.1	 0.0	 0.0	 1	    1.08013	  -20.57864	 225.0	 1	    1.08444	    1.00889;
	108	 1	 12.6	 -0.4	 0.0	 0.0	 1	    1.06364	  -10.30229	 90.0	 1	    1.07778	    0.97778;
	109	 1	 68.7	 10.9	 0.0	 0.0	 1	    1.06160	  -11.23930	 63.0	 1	    1.06349	    0.93651;
	110	 1	 0.0	 0.0	 0.0	 0.0	 1	    1.04584	   -8.45970	 225.0	 1	    1.08889	    0.93333;
	111	 1	 36.5	 -7.9	 0.0	 0.0	 1	    1.02601	  -15.15133	 63.0	 1	    1.06349	    0.96825;
	112	 1	 0.0	 0.0	 0.0	 0.0	 1	    1.03680	  -15.26616	 63.0	 1	    1.04762	    0.95238;
	113	 1	 0.0	 0.0	 0.0	 0.0	 1	    1.07721	  -12.52857	 225.0	 1	    1.08889	    1.00444;
	114	 1	 10.8	 -0.0	 0.0	 0.0	 1	    1.05435	  -14.04296	 63.0	 1	    1.06349	    0.93651;
	115	 1	 0.0	 0.0	 0.0	 0.0	 1	    1.08896	   -1.79220	 380.0	 1	    1.10526	    1.05263;
	116	 1	 0.0	 0.0	 0.0	 0.0	 1	    1.08877	   -1.83217	 380.0	 1	    1.10526	    1.05263;
	117	 1	 15.4	 -1.0	 0.0	 0.0	 1	    1.02525	  -18.26924	 63.0	 1	    1.07937	    0.95238;
	118	 1	 2.0	 0.8	 0.0	 0.0	 1	    1.06728	  -11.30776	 90.0	 1	    1.06958	    0.97778;
	119	 1	 37.2	 5.3	 0.0	 0.0	 1	    1.03405	   -8.97791	 63.0	 1	    1.06349	    0.93651;
	120	 1	 17.0	 -3.2	 0.0	 0.0	 1	    1.05104	   -8.59489	 63.0	 1	    1.06349	    0.93651;
	121	 1	 17.6	 3.9	 0.0	 0.0	 1	    1.02052	  -16.11745	 63.0	 1	    1.07937	    0.92063;
	122	 2	 0.0	 0.0	 0.0	 0.0	 1	    1.04597	  -10.64658	 63.0	 1	    1.07937	    0.95238;
	123	 1	 9.0	 2.6	 0.0	 0.0	 1	    1.04320	  -10.79602	 63.0	 1	    1.07937	    0.95238;
	124	 1	 8.0	 -0.9	 0.0	 0.0	 1	    1.04096	  -14.84574	 90.0	 1	    1.06667	    0.97778;
	125	 1	 10.5	 -0.5	 0.0	 0.0	 1	    1.06573	   -6.54423	 63.0	 1	    1.07937	    0.95238;
	126	 1	 0.3	 -0.1	 0.0	 0.0	 1	    1.04690	  -11.11157	 63.0	 1	    1.06349	    0.93651;
	127	 1	 7.8	 1.5	 0.0	 0.0	 1	    1.03679	  -16.14347	 63.0	 1	    1.04762	    0.95238;
	128	 1	 11.8	 7.6	 0.0	 0.0	 1	    1.04816	   -7.83586	 63.0	 1	    1.06349	    0.96825;
	129	 1	 16.7	 11.8	 0.0	 0.0	 1	    1.05002	   -6.74836	 63.0	 1	    1.06349	    0.96825;
	130	 1	 0.0	 0.0	 0.0	 0.0	 1	    1.07502	   -5.85935	 225.0	 1	    1.08444	    1.00889;
	131	 1	 103.0	 13.6	 0.0	 0.0	 1	    1.05892	  -10.60013	 225.0	 1	    1.08444	    1.00889;
	132	 2	 11.5	 0.0	 0.0	 0.0	 1	    1.06363	   -9.16719	 90.0	 1	    1.07778	    0.92222;
	133	 1	 2.1	 0.5	 0.0	 0.0	 1	    1.02697	  -16.93567	 63.0	 1	    1.04762	    0.95238;
	134	 1	 83.5	 23.6	 0.0	 0.0	 1	    1.07072	  -14.38394	 225.0	 1	    1.08889	    1.00444;
	135	 1	 0.0	 0.0	 0.0	 0.0	 1	    1.07748	  -15.68276	 225.0	 1	    1.08889	    1.00444;
	136	 1	 21.9	 -0.2	 0.0	 0.0	 1	    1.05729	  -20.99645	 90.0	 1	    1.07778	    0.97778;
	137	 2	 9.6	 -4.4	 0.0	 0.0	 1	    1.05142	   -9.66935	 63.0	 1	    1.06349	    0.96825;
	138	 1	 0.0	 0.0	 0.0	 0.0	 1	    1.05900	   -8.63648	 150.0	 1	    1.08000	    0.96667;
	139	 1	 15.7	 2.2	 0.0	 0.0	 1	    1.05118	  -13.26918	 63.0	 1	    1.07937	    0.92063;
	140	 1	 0.0	 0.0	 0.0	 80.0	 1	    1.08258	  -10.16112	 225.0	 1	    1.08889	    1.00000;
	141	 1	 0.0	 0.0	 0.0	 0.0	 1	    1.08731	   -6.96046	 380.0	 1	    1.10526	    1.05263;
	142	 1	 14.8	 5.8	 0.0	 0.0	 1	    1.02828	  -13.85020	 63.0	 1	    1.07937	    0.95238;
	143	 1	 0.0	 0.0	 0.0	 0.0	 1	    1.07553	   -9.82881	 225.0	 1	    1.08889	    0.98667;
	144	 1	 23.3	 -10.3	 0.0	 0.0	 1	    1.05575	   -8.40039	 90.0	 1	    1.11111	    0.95556;
	145	 1	 27.6	 5.9	 0.0	 0.0	 1	    1.08621	   -5.40400	 225.0	 1	    1.08889	    0.96889;
	146	 1	 0.0	 0.0	 0.0	 0.0	 1	    1.08906	   -3.39748	 380.0	 1	    1.10526	    1.00000;
	147	 1	 29.0	 5.5	 0.0	 0.0	 1	    1.05466	  -14.68144	 63.0	 1	    1.06349	    0.93651;
	148	 1	 6.7	 2.4	 0.0	 0.0	 1	    1.04500	  -11.84630	 63.0	 1	    1.06349	    0.93651;
	149	 1	 17.9	 6.1	 0.0	 0.0	 1	    1.04622	  -20.30889	 90.0	 1	    1.06667	    0.97778;
	150	 1	 44.5	 6.4	 0.0	 0.0	 1	    1.05389	   -9.45179	 63.0	 1	    1.06349	    0.93651;
	151	 1	 0.0	 0.0	 0.0	 0.0	 1	    1.01205	  -18.03905	 63.0	 1	    1.06349	    0.96825;
	152	 1	 38.3	 8.8	 0.0	 7.7	 1	    1.01199	  -16.78596	 63.0	 1	    1.06349	    0.96825;
	153	 1	 23.2	 -2.6	 0.0	 0.0	 1	    1.04829	  -12.41031	 63.0	 1	    1.06349	    0.93651;
	154	 1	 0.0	 0.0	 0.0	 0.0	 1	    1.07516	   -9.41653	 225.0	 1	    1.08889	    0.93333;
	155	 2	 0.0	 0.0	 0.0	 0.0	 1	    1.01858	  -13.88097	 63.0	 1	    1.07937	    0.92063;
	156	 1	 0.0	 0.0	 0.0	 0.0	 1	    1.01201	  -18.04440	 63.0	 1	    1.06349	    0.96825;
	157	 1	 0.3	 3.1	 0.0	 0.0	 1	    0.94678	   -9.33442	 45.0	 1	    1.00000	    0.88889;
	158	 2	 0.0	 0.0	 0.0	 0.0	 1	    0.97483	   -9.32101	 45.0	 1	    1.00000	    0.88889;
	159	 1	 0.0	 0.0	 0.0	 0.0	 1	    1.04484	  -12.07206	 63.0	 1	    1.06349	    0.93651;
	160	 1	 35.2	 5.6	 0.0	 0.0	 1	    1.06989	   -7.28211	 225.0	 1	    1.08889	    0.88889;
	161	 1	 38.2	 8.7	 0.0	 0.0	 1	    1.06974	   -7.28810	 225.0	 1	    1.08889	    0.88889;
	162	 1	 0.7	 -1.4	 0.0	 0.0	 1	    1.04201	   -7.67804	 90.0	 1	    1.06667	    0.97778;
	163	 1	 0.0	 0.0	 0.0	 0.0	 1	    1.04071	  -10.85759	 63.0	 1	    1.07937	    0.95238;
	164	 1	 0.0	 0.0	 0.0	 0.0	 1	    1.04071	  -10.85759	 63.0	 1	    1.07937	    0.95238;
	165	 1	 16.7	 9.2	 0.0	 0.0	 1	    1.07292	  -15.33550	 20.0	 1	    1.15000	    0.80000;
	166	 1	 10.1	 2.4	 0.0	 0.0	 1	    1.04528	  -19.64530	 90.0	 1	    1.06667	    0.97778;
	167	 1	 13.6	 0.6	 0.0	 0.0	 1	    1.03772	  -19.99114	 90.0	 1	    1.06667	    0.97778;
	168	 1	 0.0	 0.0	 0.0	 0.0	 1	    1.07300	  -15.32892	 225.0	 1	    1.08444	    1.00444;
	169	 1	 10.8	 -1.0	 0.0	 0.0	 1	    1.02990	  -17.41654	 90.0	 1	    1.06667	    0.97778;
	170	 1	 70.4	 11.6	 0.0	 0.0	 1	    1.05592	  -17.01133	 90.0	 1	    1.07778	    0.97778;
	171	 1	 26.5	 -0.4	 0.0	 0.0	 1	    1.05348	  -19.38401	 90.0	 1	    1.07778	    0.97778;
	172	 1	 0.0	 0.0	 0.0	 0.0	 1	    1.07180	  -15.73902	 225.0	 1	    1.08889	    1.00444;
	173	 1	 27.7	 8.5	 0.0	 0.0	 1	    1.08054	   -7.75290	 90.0	 1	    1.08889	    0.93333;
	174	 1	 47.4	 4.6	 0.0	 0.0	 1	    1.07336	  -12.64476	 90.0	 1	    1.11111	    0.95556;
	175	 1	 0.0	 0.0	 0.0	 0.0	 1	    1.03591	  -12.15650	 63.0	 1	    1.07937	    0.92063;
	176	 1	 0.0	 0.0	 0.0	 0.0	 1	    1.03489	  -10.96537	 63.0	 1	    1.07937	    0.92063;
	177	 2	 0.0	 0.0	 0.0	 0.0	 1	    1.08813	   -8.49515	 150.0	 1	    1.10000	    0.90000;
	178	 1	 0.0	 0.0	 0.0	 0.0	 1	    1.08833	  -13.21448	 225.0	 1	    1.08889	    1.00444;
	179	 1	 0.0	 0.0	 0.0	 0.0	 1	    1.08833	  -13.21448	 225.0	 1	    1.08889	    1.00444;
	180	 1	 0.0	 0.0	 0.0	 -32.0	 1	    1.00631	  -16.29561	 20.0	 1	    1.15000	    0.80000;
	181	 1	 0.0	 0.0	 0.0	 -32.0	 1	    1.02900	  -16.24962	 20.0	 1	    1.15000	    0.80000;
	182	 1	 0.0	 0.0	 0.0	 0.0	 1	    1.03690	  -16.13635	 63.0	 1	    1.04762	    0.95238;
	183	 1	 0.0	 0.0	 0.0	 0.0	 1	    1.08833	  -13.21447	 225.0	 1	    1.08889	    1.00444;
	184	 1	 12.9	 -4.6	 0.0	 0.0	 1	    1.05081	  -18.40818	 63.0	 1	    1.07937	    0.92063;
	185	 1	 16.0	 3.1	 0.0	 0.0	 1	    1.04602	   -9.55710	 63.0	 1	    1.06349	    0.93651;
	186	 1	 4.8	 -0.4	 0.0	 0.0	 1	    1.03749	  -14.14546	 63.0	 1	    1.07937	    0.95238;
	187	 1	 5.0	 1.4	 0.0	 0.0	 1	    1.06331	   -8.09493	 90.0	 1	    1.07778	    0.97778;
	188	 1	 28.7	 4.0	 0.0	 0.0	 1	    1.01989	  -14.67963	 63.0	 1	    1.07937	    0.95238;
	189	 1	 1.1	 0.3	 0.0	 0.0	 1	    1.03293	   -8.36411	 90.0	 1	    1.06667	    0.97778;
	190	 2	 0.0	 0.0	 0.0	 0.0	 1	    1.04899	  -14.13051	 63.0	 1	    1.07937	    0.92063;
	191	 1	 16.2	 1.6	 0.0	 0.0	 1	    1.02957	  -14.02457	 63.0	 1	    1.07937	    0.92063;
	192	 2	 0.0	 0.0	 0.0	 0.0	 1	    0.96969	   -8.22961	 45.0	 1	    1.00000	    0.88889;
	193	 1	 13.8	 -0.3	 0.0	 0.0	 1	    1.03105	  -17.61714	 90.0	 1	    1.06667	    0.97778;
	194	 1	 7.4	 -1.5	 0.0	 0.0	 1	    1.06250	  -13.83017	 63.0	 1	    1.07937	    0.92063;
	195	 1	 7.9	 4.8	 0.0	 0.0	 1	    1.07662	  -12.98088	 225.0	 1	    1.08889	    1.00444;
	196	 2	 1.0	 -0.3	 0.0	 0.0	 1	    1.05875	  -15.41766	 63.0	 1	    1.07937	    0.92063;
	197	 1	 0.0	 0.0	 0.0	 0.0	 1	    1.09830	  -14.45313	 63.0	 1	    1.09837	    0.95238;
	198	 1	 0.0	 0.0	 0.0	 0.0	 1	    1.09830	  -14.45318	 63.0	 1	    1.09837	    0.95238;
	199	 1	 24.4	 1.2	 0.0	 0.0	 1	    1.05150	  -19.79417	 63.0	 1	    1.07937	    0.92063;
	200	 1	 9.3	 -2.7	 0.0	 0.0	 1	    1.02929	  -15.06996	 63.0	 1	    1.07937	    0.92063;
...
];

%% generator data
%	bus	Pg	Qg	Qmax	Qmin	Vg	mBase	status	Pmax	Pmin	Pc1	Pc2	Qc1min	Qc1max	Qc2min	Qc2max	ramp_agc	ramp_10	ramp_30	ramp_q	apf
mpc.gen = [
	4	 0.0	 0.0	 0.0	 0.0	 1.06012	 100.0	 0	 12.0	 0.0	 0.0	 0.0	 0.0	 0.0	 0.0	 0.0	 0.0	 0.0	 0.0	 0.0	 0.0;
	4	 0.0	 0.0	 0.0	 0.0	 1.06012	 100.0	 0	 10.0	 0.0	 0.0	 0.0	 0.0	 0.0	 0.0	 0.0	 0.0	 0.0	 0.0	 0.0	 0.0;
	5	 9.1	 0.0	 0.0	 0.0	 1.0252	 100.0	 1	 9.1	 0.0	 0.0	 0.0	 0.0	 0.0	 0.0	 0.0	 0.0	 0.0	 0.0	 0.0	 0.0;
	11	 0.0	 0.0	 0.0	 0.0	 1.04248	 100.0	 0	 28.0	 0.0	 0.0	 0.0	 0.0	 0.0	 0.0	 0.0	 0.0	 0.0	 0.0	 0.0	 0.0;
	11	 0.0	 0.0	 0.0	 0.0	 1.04248	 100.0	 0	 18.0	 0.0	 0.0	 0.0	 0.0	 0.0	 0.0	 0.0	 0.0	 0.0	 0.0	 0.0	 0.0;
	17	 8.2	 0.0	 0.0	 0.0	 1.05841	 100.0	 1	 8.2	 0.0	 0.0	 0.0	 0.0	 0.0	 0.0	 0.0	 0.0	 0.0	 0.0	 0.0	 0.0;
	19	 0.0	 0.0	 0.0	 0.0	 1.03162	 100.0	 0	 1.2	 0.0	 0.0	 0.0	 0.0	 0.0	 0.0	 0.0	 0.0	 0.0	 0.0	 0.0	 0.0;
	22	 0.0	 0.0	 0.0	 0.0	 1.04582	 100.0	 0	 10.0	 0.0	 0.0	 0.0	 0.0	 0.0	 0.0	 0.0	 0.0	 0.0	 0.0	 0.0	 0.0;
	24	 0.0	 0.0	 0.0	 0.0	 1.06946	 100.0	 0	 16.1	 0.0	 0.0	 0.0	 0.0	 0.0	 0.0	 0.0	 0.0	 0.0	 0.0	 0.0	 0.0;
	24	 32.044	 0.0	 0.0	 0.0	 1.06946	 100.0	 1	 35.5	 0.0	 0.0	 0.0	 0.0	 0.0	 0.0	 0.0	 0.0	 0.0	 0.0	 0.0	 0.0;
	25	 36.0	 0.0	 0.0	 0.0	 1.08461	 100.0	 1	 36.0	 0.0	 0.0	 0.0	 0.0	 0.0	 0.0	 0.0	 0.0	 0.0	 0.0	 0.0	 0.0;
	25	 0.0	 0.0	 0.0	 0.0	 1.08461	 100.0	 0	 27.2	 0.0	 0.0	 0.0	 0.0	 0.0	 0.0	 0.0	 0.0	 0.0	 0.0	 0.0	 0.0;
	40	 0.0	 0.0	 0.0	 0.0	 1.0589	 100.0	 0	 8.0	 0.0	 0.0	 0.0	 0.0	 0.0	 0.0	 0.0	 0.0	 0.0	 0.0	 0.0	 0.0;
	47	 16.0	 4.023	 9.5	 -9.5	 1.05601	 100.0	 1	 16.0	 0.0	 0.0	 0.0	 0.0	 0.0	 0.0	 0.0	 0.0	 0.0	 0.0	 0.0	 0.0;
	47	 0.0	 -1.81	 9.5	 -9.5	 1.05601	 100.0	 0	 16.0	 0.0	 0.0	 0.0	 0.0	 0.0	 0.0	 0.0	 0.0	 0.0	 0.0	 0.0	 0.0;
	48	 18.323	 0.0	 0.0	 0.0	 1.0683	 100.0	 1	 23.0	 0.0	 0.0	 0.0	 0.0	 0.0	 0.0	 0.0	 0.0	 0.0	 0.0	 0.0	 0.0;
	48	 19.264	 0.0	 0.0	 0.0	 1.0683	 100.0	 1	 24.0	 0.0	 0.0	 0.0	 0.0	 0.0	 0.0	 0.0	 0.0	 0.0	 0.0	 0.0	 0.0;
	57	 0.0	 0.9	 1.0	 0.9	 1.06354	 100.0	 1	 13.0	 0.0	 0.0	 0.0	 0.0	 0.0	 0.0	 0.0	 0.0	 0.0	 0.0	 0.0	 0.0;
	64	 0.0	 0.0	 0.0	 0.0	 1.08544	 100.0	 0	 24.0	 0.0	 0.0	 0.0	 0.0	 0.0	 0.0	 0.0	 0.0	 0.0	 0.0	 0.0	 0.0;
	64	 27.6	 0.0	 0.0	 0.0	 1.08544	 100.0	 1	 27.6	 0.0	 0.0	 0.0	 0.0	 0.0	 0.0	 0.0	 0.0	 0.0	 0.0	 0.0	 0.0;
	69	 30.04	 0.0	 0.0	 0.0	 1.04782	 100.0	 1	 30.04	 0.0	 0.0	 0.0	 0.0	 0.0	 0.0	 0.0	 0.0	 0.0	 0.0	 0.0	 0.0;
	70	 23.0	 0.0	 0.0	 0.0	 1.03578	 100.0	 1	 23.0	 0.0	 0.0	 0.0	 0.0	 0.0	 0.0	 0.0	 0.0	 0.0	 0.0	 0.0	 0.0;
	85	 0.0	 0.0	 0.0	 0.0	 1.05478	 100.0	 0	 6.68	 0.0	 0.0	 0.0	 0.0	 0.0	 0.0	 0.0	 0.0	 0.0	 0.0	 0.0	 0.0;
	86	 9.2	 0.0	 0.0	 0.0	 1.01693	 100.0	 1	 9.2	 0.0	 0.0	 0.0	 0.0	 0.0	 0.0	 0.0	 0.0	 0.0	 0.0	 0.0	 0.0;
	102	 46.0	 -1.079	 21.0	 -9.0	 1.05356	 100.0	 1	 46.0	 0.0	 0.0	 0.0	 0.0	 0.0	 0.0	 0.0	 0.0	 0.0	 0.0	 0.0	 0.0;
	122	 12.0	 5.0	 5.0	 -2.0	 1.04597	 100.0	 1	 12.0	 0.0	 0.0	 0.0	 0.0	 0.0	 0.0	 0.0	 0.0	 0.0	 0.0	 0.0	 0.0;
	124	 9.0	 0.0	 0.0	 0.0	 1.04096	 100.0	 1	 9.0	 0.0	 0.0	 0.0	 0.0	 0.0	 0.0	 0.0	 0.0	 0.0	 0.0	 0.0	 0.0;
	125	 26.0	 0.0	 0.0	 0.0	 1.06573	 100.0	 1	 26.0	 0.0	 0.0	 0.0	 0.0	 0.0	 0.0	 0.0	 0.0	 0.0	 0.0	 0.0	 0.0;
	125	 12.0	 0.0	 0.0	 0.0	 1.06573	 100.0	 1	 12.0	 0.0	 0.0	 0.0	 0.0	 0.0	 0.0	 0.0	 0.0	 0.0	 0.0	 0.0	 0.0;
	132	 17.0	 -2.999	 3.0	 -3.0	 1.06363	 100.0	 1	 17.0	 0.0	 0.0	 0.0	 0.0	 0.0	 0.0	 0.0	 0.0	 0.0	 0.0	 0.0	 0.0;
	132	 0.0	 1.0	 1.0	 -1.0	 1.06363	 100.0	 0	 4.0	 0.0	 0.0	 0.0	 0.0	 0.0	 0.0	 0.0	 0.0	 0.0	 0.0	 0.0	 0.0;
	132	 0.0	 1.99	 3.0	 -3.0	 1.06363	 100.0	 0	 14.0	 0.0	 0.0	 0.0	 0.0	 0.0	 0.0	 0.0	 0.0	 0.0	 0.0	 0.0	 0.0;
	132	 0.0	 1.99	 3.0	 -3.0	 1.06363	 100.0	 0	 14.0	 0.0	 0.0	 0.0	 0.0	 0.0	 0.0	 0.0	 0.0	 0.0	 0.0	 0.0	 0.0;
	137	 0.0	 -0.57	 0.8	 -0.8	 1.05142	 100.0	 0	 18.0	 0.0	 0.0	 0.0	 0.0	 0.0	 0.0	 0.0	 0.0	 0.0	 0.0	 0.0	 0.0;
	137	 18.0	 -0.8	 0.8	 -0.8	 1.05142	 100.0	 1	 18.0	 0.0	 0.0	 0.0	 0.0	 0.0	 0.0	 0.0	 0.0	 0.0	 0.0	 0.0	 0.0;
	155	 0.0	 -1.75	 1.76	 -1.76	 1.01858	 100.0	 0	 5.3	 0.0	 0.0	 0.0	 0.0	 0.0	 0.0	 0.0	 0.0	 0.0	 0.0	 0.0	 0.0;
	158	 17.9	 10.0	 10.0	 -13.0	 0.97483	 100.0	 1	 17.9	 0.0	 0.0	 0.0	 0.0	 0.0	 0.0	 0.0	 0.0	 0.0	 0.0	 0.0	 0.0;
	158	 0.0	 -2.57	 10.0	 -13.0	 0.97483	 100.0	 0	 17.9	 0.0	 0.0	 0.0	 0.0	 0.0	 0.0	 0.0	 0.0	 0.0	 0.0	 0.0	 0.0;
	177	 0.0	 -1.56	 10.0	 -4.0	 1.08813	 100.0	 0	 30.0	 0.0	 0.0	 0.0	 0.0	 0.0	 0.0	 0.0	 0.0	 0.0	 0.0	 0.0	 0.0;
	190	 0.0	 -1.41	 8.0	 -8.0	 1.04899	 100.0	 0	 11.0	 0.0	 0.0	 0.0	 0.0	 0.0	 0.0	 0.0	 0.0	 0.0	 0.0	 0.0	 0.0;
	190	 0.0	 -1.41	 2.0	 -2.0	 1.04899	 100.0	 0	 11.0	 0.0	 0.0	 0.0	 0.0	 0.0	 0.0	 0.0	 0.0	 0.0	 0.0	 0.0	 0.0;
	192	 0.0	 -2.63	 14.0	 -14.0	 0.96969	 100.0	 0	 30.0	 0.0	 0.0	 0.0	 0.0	 0.0	 0.0	 0.0	 0.0	 0.0	 0.0	 0.0	 0.0;
	194	 0.0	 0.0	 0.0	 0.0	 1.0625	 100.0	 0	 23.5	 0.0	 0.0	 0.0	 0.0	 0.0	 0.0	 0.0	 0.0	 0.0	 0.0	 0.0	 0.0;
	196	 12.124	 0.9	 1.0	 0.9	 1.05875	 100.0	 1	 15.0	 0.0	 0.0	 0.0	 0.0	 0.0	 0.0	 0.0	 0.0	 0.0	 0.0	 0.0	 0.0;
	196	 12.124	 0.9	 1.0	 0.9	 1.05875	 100.0	 1	 15.0	 0.0	 0.0	 0.0	 0.0	 0.0	 0.0	 0.0	 0.0	 0.0	 0.0	 0.0	 0.0;
	219	 11.94	 0.0	 0.0	 0.0	 1.02052	 100.0	 1	 11.94	 0.0	 0.0	 0.0	 0.0	 0.0	 0.0	 0.0	 0.0	 0.0	 0.0	 0.0	 0.0;
	226	 0.0	 0.0	 2.0	 0.0	 1.08808	 100.0	 0	 6.0	 0.0	 0.0	 0.0	 0.0	 0.0	 0.0	 0.0	 0.0	 0.0	 0.0	 0.0	 0.0;
	229	 7.5	 0.0	 0.0	 0.0	 1.03599	 100.0	 1	 7.5	 0.0	 0.0	 0.0	 0.0	 0.0	 0.0	 0.0	 0.0	 0.0	 0.0	 0.0	 0.0;
	238	 20.808	 0.0	 0.0	 0.0	 1.07078	 100.0	 1	 33.5	 0.0	 0.0	 0.0	 0.0	 0.0	 0.0	 0.0	 0.0	 0.0	 0.0	 0.0	 0.0;
	238	 14.344	 0.0	 0.0	 0.0	 1.07078	 100.0	 1	 24.3	 0.0	 0.0	 0.0	 0.0	 0.0	 0.0	 0.0	 0.0	 0.0	 0.0	 0.0	 0.0;
	240	 0.0	 0.0	 0.0	 0.0	 1.04148	 100.0	 0	 8.0	 0.0	 0.0	 0.0	 0.0	 0.0	 0.0	 0.0	 0.0	 0.0	 0.0	 0.0	 0.0;
	240	 36.0	 0.0	 0.0	 0.0	 1.04148	 100.0	 1	 36.0	 0.0	 0.0	 0.0	 0.0	 0.0	 0.0	 0.0	 0.0	 0.0	 0.0	 0.0	 0.0;
	248	 0.0	 0.0	 2.0	 0.0	 1.01472	 100.0	 0	 1.0	 0.0	 0.0	 0.0	 0.0	 0.0	 0.0	 0.0	 0.0	 0.0	 0.0	 0.0	 0.0;
	248	 0.0	 -2.77	 10.0	 -10.0	 1.01472	 100.0	 0	 31.0	 0.0	 0.0	 0.0	 0.0	 0.0	 0.0	 0.0	 0.0	 0.0	 0.0	 0.0	 0.0;
	248	 0.0	 -2.77	 10.0	 -10.0	 1.01472	 100.0	 0	 31.0	 0.0	 0.0	 0.0	 0.0	 0.0	 0.0	 0.0	 0.0	 0.0	 0.0	 0.0	 0.0;
	248	 0.0	 -2.77	 10.0	 -10.0	 1.01472	 100.0	 0	 31.0	 0.0	 0.0	 0.0	 0.0	 0.0	 0.0	 0.0	 0.0	 0.0	 0.0	 0.0	 0.0;
	258	 0.0	 -1.94	 10.0	 -10.0	 1.04219	 100.0	 0	 26.0	 0.0	 0.0	 0.0	 0.0	 0.0	 0.0	 0.0	 0.0	 0.0	 0.0	 0.0	 0.0;
	258	 0.0	 0.23	 10.0	 -10.0	 1.04219	 100.0	 0	 26.0	 0.0	 0.0	 0.0	 0.0	 0.0	 0.0	 0.0	 0.0	 0.0	 0.0	 0.0	 0.0;
	260	 30.0	 0.9	 1.0	 0.9	 1.06633	 100.0	 1	 30.0	 0.0	 0.0	 0.0	 0.0	 0.0	 0.0	 0.0	 0.0	 0.0	 0.0	 0.0	 0.0;
	263	 8.0	 -2.47	 4.0	 -4.0	 1.03841	 100.0	 1	 8.0	 0.0	 0.0	 0.0	 0.0	 0.0	 0.0	 0.0	 0.0	 0.0	 0.0	 0.0	 0.0;
	271	 0.0	 0.0	 0.0	 0.0	 1.02167	 100.0	 0	 12.6	 0.0	 0.0	 0.0	 0.0	 0.0	 0.0	 0.0	 0.0	 0.0	 0.0	 0.0	 0.0;
	284	 0.0	 -2.78	 6.1	 -6.2	 1.01472	 100.0	 0	 11.6	 0.0	 0.0	 0.0	 0.0	 0.0	 0.0	 0.0	 0.0	 0.0	 0.0	 0.0	 0.0;
	297	 0.0	 0.0	 0.0	 0.0	 1.07125	 100.0	 0	 25.3	 0.0	 0.0	 0.0	 0.0	 0.0	 0.0	 0.0	 0.0	 0.0	 0.0	 0.0	 0.0;
	298	 0.0	 0.0	 0.0	 0.0	 1.02918	 100.0	 0	 12.0	 0.0	 0.0	 0.0	 0.0	 0.0	 0.0	 0.0	 0.0	 0.0	 0.0	 0.0	 0.0;
	307	 15.0	 -7.483	 9.0	 -9.0	 1.06312	 100.0	 1	 15.0	 0.0	 0.0	 0.0	 0.0	 0.0	 0.0	 0.0	 0.0	 0.0	 0.0	 0.0	 0.0;
	314	 25.8	 0.0	 0.0	 0.0	 1.03848	 100.0	 1	 25.8	 0.0	 0.0	 0.0	 0.0	 0.0	 0.0	 0.0	 0.0	 0.0	 0.0	 0.0	 0.0;
	314	 49.6	 0.0	 0.0	 0.0	 1.03848	 100.0	 1	 49.6	 0.0	 0.0	 0.0	 0.0	 0.0	 0.0	 0.0	 0.0	 0.0	 0.0	 0.0	 0.0;
	319	 0.0	 0.0	 0.0	 0.0	 1.06267	 100.0	 0	 0.0	 -7.0	 0.0	 0.0	 0.0	 0.0	 0.0	 0.0	 0.0	 0.0	 0.0	 0.0	 0.0;
	319	 0.0	 0.0	 0.0	 0.0	 1.06267	 100.0	 0	 0.0	 -7.0	 0.0	 0.0	 0.0	 0.0	 0.0	 0.0	 0.0	 0.0	 0.0	 0.0	 0.0;
	321	 10.8	 -0.1	 0.1	 -0.1	 1.05182	 100.0	 1	 10.8	 0.0	 0.0	 0.0	 0.0	 0.0	 0.0	 0.0	 0.0	 0.0	 0.0	 0.0	 0.0;
	327	 0.0	 -0.57	 4.0	 -4.0	 1.03846	 100.0	 0	 11.0	 0.0	 0.0	 0.0	 0.0	 0.0	 0.0	 0.0	 0.0	 0.0	 0.0	 0.0	 0.0;
	334	 0.0	 0.13	 13.0	 -9.0	 1.03676	 100.0	 0	 25.0	 0.0	 0.0	 0.0	 0.0	 0.0	 0.0	 0.0	 0.0	 0.0	 0.0	 0.0	 0.0;
	335	 25.0	 -9.0	 13.0	 -9.0	 1.02923	 100.0	 1	 25.0	 0.0	 0.0	 0.0	 0.0	 0.0	 0.0	 0.0	 0.0	 0.0	 0.0	 0.0	 0.0;
	338	 13.0	 2.386	 5.0	 -6.0	 1.03402	 100.0	 1	 13.0	 0.0	 0.0	 0.0	 0.0	 0.0	 0.0	 0.0	 0.0	 0.0	 0.0	 0.0	 0.0;
	340	 0.0	 -1.82	 10.0	 -10.0	 1.06107	 100.0	 0	 21.0	 0.0	 0.0	 0.0	 0.0	 0.0	 0.0	 0.0	 0.0	 0.0	 0.0	 0.0	 0.0;
	340	 0.0	 -0.1	 0.1	 -0.1	 1.06107	 100.0	 0	 2.0	 0.0	 0.0	 0.0	 0.0	 0.0	 0.0	 0.0	 0.0	 0.0	 0.0	 0.0	 0.0;
	347	 0.0	 0.0	 0.0	 0.0	 1.06269	 100.0	 0	 2.3	 0.0	 0.0	 0.0	 0.0	 0.0	 0.0	 0.0	 0.0	 0.0	 0.0	 0.0	 0.0;
	347	 19.5	 0.0	 0.0	 0.0	 1.06269	 100.0	 1	 19.5	 0.0	 0.0	 0.0	 0.0	 0.0	 0.0	 0.0	 0.0	 0.0	 0.0	 0.0	 0.0;
	350	 0.0	 0.0	 0.0	 0.0	 1.07134	 100.0	 0	 22.0	 0.0	 0.0	 0.0	 0.0	 0.0	 0.0	 0.0	 0.0	 0.0	 0.0	 0.0	 0.0;
	358	 0.0	 1.84	 30.0	 -30.0	 1.01799	 100.0	 0	 30.0	 0.0	 0.0	 0.0	 0.0	 0.0	 0.0	 0.0	 0.0	 0.0	 0.0	 0.0	 0.0;
	359	 12.0	 0.0	 0.0	 0.0	 1.02783	 100.0	 1	 12.0	 0.0	 0.0	 0.0	 0.0	 0.0	 0.0	 0.0	 0.0	 0.0	 0.0	 0.0	 0.0;
	359	 12.0	 0.0	 0.0	 0.0	 1.02783	 100.0	 1	 12.0	 0.0	 0.0	 0.0	 0.0	 0.0	 0.0	 0.0	 0.0	 0.0	 0.0	 0.0	 0.0;
	366	 130.0	 58.999	 59.0	 -26.0	 1.08889	 100.0	 1	 130.0	 0.0	 0.0	 0.0	 0.0	 0.0	 0.0	 0.0	 0.0	 0.0	 0.0	 0.0	 0.0;
	393	 0.0	 0.0	 0.0	 0.0	 1.03048	 100.0	 0	 2.7	 0.0	 0.0	 0.0	 0.0	 0.0	 0.0	 0.0	 0.0	 0.0	 0.0	 0.0	 0.0;
	412	 10.0	 0.0	 0.0	 0.0	 1.03451	 100.0	 1	 10.0	 0.0	 0.0	 0.0	 0.0	 0.0	 0.0	 0.0	 0.0	 0.0	 0.0	 0.0	 0.0;
	412	 11.5	 0.0	 0.0	 0.0	 1.03451	 100.0	 1	 11.5	 0.0	 0.0	 0.0	 0.0	 0.0	 0.0	 0.0	 0.0	 0.0	 0.0	 0.0	 0.0;
	432	 0.0	 0.0	 0.0	 0.0	 1.05914	 100.0	 0	 12.0	 0.0	 0.0	 0.0	 0.0	 0.0	 0.0	 0.0	 0.0	 0.0	 0.0	 0.0	 0.0;
	441	 0.0	 1.33	 10.96	 -11.99	 1.02293	 100.0	 0	 34.25	 0.0	 0.0	 0.0	 0.0	 0.0	 0.0	 0.0	 0.0	 0.0	 0.0	 0.0	 0.0;
	448	 0.0	 0.71	 8.0	 -9.0	 1.0108	 100.0	 0	 25.0	 0.0	 0.0	 0.0	 0.0	 0.0	 0.0	 0.0	 0.0	 0.0	 0.0	 0.0	 0.0;
	463	 0.0	 0.0	 0.0	 0.0	 1.0141	 100.0	 0	 2.4	 0.0	 0.0	 0.0	 0.0	 0.0	 0.0	 0.0	 0.0	 0.0	 0.0	 0.0	 0.0;
	463	 16.0	 0.0	 0.0	 0.0	 1.0141	 100.0	 1	 16.0	 0.0	 0.0	 0.0	 0.0	 0.0	 0.0	 0.0	 0.0	 0.0	 0.0	 0.0	 0.0;
	465	 27.0	 1.571	 6.0	 -3.0	 1.17111	 100.0	 1	 27.0	 1.0	 0.0	 0.0	 0.0	 0.0	 0.0	 0.0	 0.0	 0.0	 0.0	 0.0	 0.0;
	465	 27.0	 1.571	 6.0	 -3.0	 1.17111	 100.0	 1	 27.0	 1.0	 0.0	 0.0	 0.0	 0.0	 0.0	 0.0	 0.0	 0.0	 0.0	 0.0	 0.0;
	467	 48.0	 9.604	 19.0	 -10.0	 1.01347	 100.0	 1	 48.0	 1.0	 0.0	 0.0	 0.0	 0.0	 0.0	 0.0	 0.0	 0.0	 0.0	 0.0	 0.0;
	471	 0.0	 -2.86	 6.0	 -6.0	 1.05559	 100.0	 0	 10.0	 0.0	 0.0	 0.0	 0.0	 0.0	 0.0	 0.0	 0.0	 0.0	 0.0	 0.0	 0.0;
	471	 0.0	 -5.4	 5.4	 -5.4	 1.05559	 100.0	 0	 9.0	 0.0	 0.0	 0.0	 0.0	 0.0	 0.0	 0.0	 0.0	 0.0	 0.0	 0.0	 0.0;
	480	 0.0	 -2.66	 17.0	 -16.0	 1.01896	 100.0	 0	 27.0	 0.0	 0.0	 0.0	 0.0	 0.0	 0.0	 0.0	 0.0	 0.0	 0.0	 0.0	 0.0;
	480	 0.0	 -2.66	 17.0	 -16.0	 1.01896	 100.0	 0	 27.0	 0.0	 0.0	 0.0	 0.0	 0.0	 0.0	 0.0	 0.0	 0.0	 0.0	 0.0	 0.0;
	480	 0.0	 -2.66	 17.0	 -16.0	 1.01896	 100.0	 0	 27.0	 0.0	 0.0	 0.0	 0.0	 0.0	 0.0	 0.0	 0.0	 0.0	 0.0	 0.0	 0.0;
	492	 0.0	 -0.74	 8.0	 -17.0	 1.06745	 100.0	 0	 23.4	 0.0	 0.0	 0.0	 0.0	 0.0	 0.0	 0.0	 0.0	 0.0	 0.0	 0.0	 0.0;
	509	 0.0	 0.34	 2.0	 -2.0	 1.01851	 100.0	 0	 4.0	 0.0	 0.0	 0.0	 0.0	 0.0	 0.0	 0.0	 0.0	 0.0	 0.0	 0.0	 0.0;
	518	 0.0	 0.0	 0.0	 0.0	 1.00842	 100.0	 0	 10.0	 0.0	 0.0	 0.0	 0.0	 0.0	 0.0	 0.0	 0.0	 0.0	 0.0	 0.0	 0.0;
	519	 12.0	 0.0	 0.0	 0.0	 1.04269	 100.0	 1	 12.0	 0.0	 0.0	 0.0	 0.0	 0.0	 0.0	 0.0	 0.0	 0.0	 0.0	 0.0	 0.0;
	529	 0.0	 -1.62	 4.8	 -4.8	 1.0466	 100.0	 0	 8.0	 0.0	 0.0	 0.0	 0.0	 0.0	 0.0	 0.0	 0.0	 0.0	 0.0	 0.0	 0.0;
	529	 0.0	 -1.62	 4.8	 -4.8	 1.0466	 100.0	 0	 8.0	 0.0	 0.0	 0.0	 0.0	 0.0	 0.0	 0.0	 0.0	 0.0	 0.0	 0.0	 0.0;
	529	 8.0	 4.8	 4.8	 -4.8	 1.0466	 100.0	 1	 8.0	 0.0	 0.0	 0.0	 0.0	 0.0	 0.0	 0.0	 0.0	 0.0	 0.0	 0.0	 0.0;
	535	 12.0	 0.0	 0.0	 0.0	 1.03243	 100.0	 1	 12.0	 0.0	 0.0	 0.0	 0.0	 0.0	 0.0	 0.0	 0.0	 0.0	 0.0	 0.0	 0.0;
	535	 24.0	 0.0	 0.0	 0.0	 1.03243	 100.0	 1	 24.0	 0.0	 0.0	 0.0	 0.0	 0.0	 0.0	 0.0	 0.0	 0.0	 0.0	 0.0	 0.0;
	544	 9.0	 1.9	 2.0	 1.9	 1.04065	 100.0	 1	 9.0	 0.0	 0.0	 0.0	 0.0	 0.0	 0.0	 0.0	 0.0	 0.0	 0.0	 0.0	 0.0;
	547	 0.0	 0.0	 2.0	 0.0	 1.02277	 100.0	 0	 12.0	 0.0	 0.0	 0.0	 0.0	 0.0	 0.0	 0.0	 0.0	 0.0	 0.0	 0.0	 0.0;
	569	 8.25	 0.0	 0.0	 0.0	 1.03448	 100.0	 1	 12.0	 0.0	 0.0	 0.0	 0.0	 0.0	 0.0	 0.0	 0.0	 0.0	 0.0	 0.0	 0.0;
	569	 24.625	 0.0	 0.0	 0.0	 1.03448	 100.0	 1	 30.0	 0.0	 0.0	 0.0	 0.0	 0.0	 0.0	 0.0	 0.0	 0.0	 0.0	 0.0	 0.0;
	569	 7.837	 0.0	 0.0	 0.0	 1.03448	 100.0	 1	 11.5	 0.0	 0.0	 0.0	 0.0	 0.0	 0.0	 0.0	 0.0	 0.0	 0.0	 0.0	 0.0;
	582	 16.0	 3.156	 7.0	 -4.0	 1.03403	 100.0	 1	 16.0	 0.0	 0.0	 0.0	 0.0	 0.0	 0.0	 0.0	 0.0	 0.0	 0.0	 0.0	 0.0;
	584	 9.0	 0.0	 0.0	 0.0	 1.02043	 100.0	 1	 9.0	 0.0	 0.0	 0.0	 0.0	 0.0	 0.0	 0.0	 0.0	 0.0	 0.0	 0.0	 0.0;
	585	 9.5	 2.145	 5.7	 -5.7	 1.05263	 100.0	 1	 9.5	 0.0	 0.0	 0.0	 0.0	 0.0	 0.0	 0.0	 0.0	 0.0	 0.0	 0.0	 0.0;
	588	 0.0	 0.1	 0.1	 -0.1	 1.03219	 100.0	 0	 1.0	 0.0	 0.0	 0.0	 0.0	 0.0	 0.0	 0.0	 0.0	 0.0	 0.0	 0.0	 0.0;
	592	 0.0	 0.82	 10.0	 -10.0	 1.0179	 100.0	 0	 21.0	 0.0	 0.0	 0.0	 0.0	 0.0	 0.0	 0.0	 0.0	 0.0	 0.0	 0.0	 0.0;
	599	 0.0	 0.03	 1.0	 -1.0	 1.02443	 100.0	 0	 6.1	 0.0	 0.0	 0.0	 0.0	 0.0	 0.0	 0.0	 0.0	 0.0	 0.0	 0.0	 0.0;
	609	 45.0	 2.462	 45.0	 -45.0	 1.0466	 100.0	 1	 45.0	 0.0	 0.0	 0.0	 0.0	 0.0	 0.0	 0.0	 0.0	 0.0	 0.0	 0.0	 0.0;
	609	 0.0	 -1.04	 45.0	 -45.0	 1.0466	 100.0	 0	 45.0	 0.0	 0.0	 0.0	 0.0	 0.0	 0.0	 0.0	 0.0	 0.0	 0.0	 0.0	 0.0;
	611	 12.0	 0.0	 0.0	 0.0	 1.02343	 100.0	 1	 12.0	 0.0	 0.0	 0.0	 0.0	 0.0	 0.0	 0.0	 0.0	 0.0	 0.0	 0.0	 0.0;
	611	 12.0	 0.0	 0.0	 0.0	 1.02343	 100.0	 1	 12.0	 0.0	 0.0	 0.0	 0.0	 0.0	 0.0	 0.0	 0.0	 0.0	 0.0	 0.0	 0.0;
	611	 12.0	 0.0	 0.0	 0.0	 1.02343	 100.0	 1	 12.0	 0.0	 0.0	 0.0	 0.0	 0.0	 0.0	 0.0	 0.0	 0.0	 0.0	 0.0	 0.0;
	612	 35.0	 0.0	 0.0	 0.0	 1.04364	 100.0	 1	 35.0	 0.0	 0.0	 0.0	 0.0	 0.0	 0.0	 0.0	 0.0	 0.0	 0.0	 0.0	 0.0;
	612	 0.0	 0.0	 0.0	 0.0	 1.04364	 100.0	 0	 11.5	 0.0	 0.0	 0.0	 0.0	 0.0	 0.0	 0.0	 0.0	 0.0	 0.0	 0.0	 0.0;
	623	 -5.711	 -0.326	 8.3	 -8.3	 1.07657	 100.0	 1	 8.3	 -8.3	 0.0	 0.0	 0.0	 0.0	 0.0	 0.0	 0.0	 0.0	 0.0	 0.0	 0.0;
	632	 0.0	 2.76	 4.0	 -4.0	 1.04863	 100.0	 0	 7.3	 0.0	 0.0	 0.0	 0.0	 0.0	 0.0	 0.0	 0.0	 0.0	 0.0	 0.0	 0.0;
	635	 0.0	 0.91	 7.0	 0.0	 1.03058	 100.0	 0	 15.0	 0.0	 0.0	 0.0	 0.0	 0.0	 0.0	 0.0	 0.0	 0.0	 0.0	 0.0	 0.0;
	635	 15.0	 3.38	 7.0	 0.0	 1.03058	 100.0	 1	 15.0	 0.0	 0.0	 0.0	 0.0	 0.0	 0.0	 0.0	 0.0	 0.0	 0.0	 0.0	 0.0;
	640	 239.0	 -102.8	 80.0	 -102.8	 1.09672	 100.0	 1	 239.0	 0.0	 0.0	 0.0	 0.0	 0.0	 0.0	 0.0	 0.0	 0.0	 0.0	 0.0	 0.0;
	651	 0.0	 1.38	 7.0	 0.0	 1.06517	 100.0	 0	 7.0	 0.0	 0.0	 0.0	 0.0	 0.0	 0.0	 0.0	 0.0	 0.0	 0.0	 0.0	 0.0;
	669	 12.0	 0.0	 0.0	 0.0	 1.04324	 100.0	 1	 12.0	 0.0	 0.0	 0.0	 0.0	 0.0	 0.0	 0.0	 0.0	 0.0	 0.0	 0.0	 0.0;
	669	 12.0	 0.0	 0.0	 0.0	 1.04324	 100.0	 1	 12.0	 0.0	 0.0	 0.0	 0.0	 0.0	 0.0	 0.0	 0.0	 0.0	 0.0	 0.0	 0.0;
	670	 7.5	 0.0	 0.0	 0.0	 1.05978	 100.0	 1	 7.5	 0.0	 0.0	 0.0	 0.0	 0.0	 0.0	 0.0	 0.0	 0.0	 0.0	 0.0	 0.0;
	670	 24.0	 0.0	 0.0	 0.0	 1.05978	 100.0	 1	 24.0	 0.0	 0.0	 0.0	 0.0	 0.0	 0.0	 0.0	 0.0	 0.0	 0.0	 0.0	 0.0;
	678	 0.0	 0.0	 0.0	 0.0	 1.00721	 100.0	 0	 6.6	 0.0	 0.0	 0.0	 0.0	 0.0	 0.0	 0.0	 0.0	 0.0	 0.0	 0.0	 0.0;
	679	 6.013	 0.0	 0.0	 0.0	 1.06667	 100.0	 1	 12.0	 0.0	 0.0	 0.0	 0.0	 0.0	 0.0	 0.0	 0.0	 0.0	 0.0	 0.0	 0.0;
	683	 2.033	 0.026	 6.0	 -5.0	 0.95673	 100.0	 1	 9.0	 0.0	 0.0	 0.0	 0.0	 0.0	 0.0	 0.0	 0.0	 0.0	 0.0	 0.0	 0.0;
	683	 2.033	 0.026	 6.0	 -5.0	 0.95673	 100.0	 1	 9.0	 0.0	 0.0	 0.0	 0.0	 0.0	 0.0	 0.0	 0.0	 0.0	 0.0	 0.0	 0.0;
	683	 0.0	 -2.58	 8.0	 -5.0	 0.95673	 100.0	 0	 11.0	 0.0	 0.0	 0.0	 0.0	 0.0	 0.0	 0.0	 0.0	 0.0	 0.0	 0.0	 0.0;
	683	 2.167	 0.841	 8.0	 -5.0	 0.95673	 100.0	 1	 11.0	 0.0	 0.0	 0.0	 0.0	 0.0	 0.0	 0.0	 0.0	 0.0	 0.0	 0.0	 0.0;
	694	 32.35	 0.0	 0.0	 0.0	 1.07569	 100.0	 1	 32.35	 0.0	 0.0	 0.0	 0.0	 0.0	 0.0	 0.0	 0.0	 0.0	 0.0	 0.0	 0.0;
	694	 12.0	 0.0	 0.0	 0.0	 1.07569	 100.0	 1	 12.0	 0.0	 0.0	 0.0	 0.0	 0.0	 0.0	 0.0	 0.0	 0.0	 0.0	 0.0	 0.0;
	694	 21.0	 0.0	 0.0	 0.0	 1.07569	 100.0	 1	 21.0	 0.0	 0.0	 0.0	 0.0	 0.0	 0.0	 0.0	 0.0	 0.0	 0.0	 0.0	 0.0;
	698	 12.276	 0.036	 15.0	 -17.0	 1.07643	 100.0	 1	 37.0	 0.0	 0.0	 0.0	 0.0	 0.0	 0.0	 0.0	 0.0	 0.0	 0.0	 0.0	 0.0;
	698	 12.276	 0.036	 15.0	 -17.0	 1.07643	 100.0	 1	 37.0	 0.0	 0.0	 0.0	 0.0	 0.0	 0.0	 0.0	 0.0	 0.0	 0.0	 0.0	 0.0;
	697	 10.949	 0.15	 15.0	 -15.0	 1.07657	 100.0	 1	 37.0	 0.0	 0.0	 0.0	 0.0	 0.0	 0.0	 0.0	 0.0	 0.0	 0.0	 0.0	 0.0;
	697	 10.949	 0.15	 15.0	 -15.0	 1.07657	 100.0	 1	 37.0	 0.0	 0.0	 0.0	 0.0	 0.0	 0.0	 0.0	 0.0	 0.0	 0.0	 0.0	 0.0;
	696	 10.949	 0.15	 15.0	 -17.0	 1.07657	 100.0	 1	 37.0	 0.0	 0.0	 0.0	 0.0	 0.0	 0.0	 0.0	 0.0	 0.0	 0.0	 0.0	 0.0;
	696	 10.949	 0.15	 15.0	 -17.0	 1.07657	 100.0	 1	 37.0	 0.0	 0.0	 0.0	 0.0	 0.0	 0.0	 0.0	 0.0	 0.0	 0.0	 0.0	 0.0;
	704	 2.231	 -0.131	 2.0	 -2.0	 0.95595	 100.0	 1	 4.0	 0.0	 0.0	 0.0	 0.0	 0.0	 0.0	 0.0	 0.0	 0.0	 0.0	 0.0	 0.0;
	704	 2.231	 -0.204	 2.5	 -2.5	 0.95595	 100.0	 1	 4.0	 0.0	 0.0	 0.0	 0.0	 0.0	 0.0	 0.0	 0.0	 0.0	 0.0	 0.0	 0.0;
	704	 3.312	 -0.293	 3.0	 -3.0	 0.95595	 100.0	 1	 5.7	 0.0	 0.0	 0.0	 0.0	 0.0	 0.0	 0.0	 0.0	 0.0	 0.0	 0.0	 0.0;
	704	 0.0	 -2.66	 6.0	 -5.0	 0.95595	 100.0	 0	 8.5	 0.0	 0.0	 0.0	 0.0	 0.0	 0.0	 0.0	 0.0	 0.0	 0.0	 0.0	 0.0;
	731	 19.5	 0.0	 0.0	 0.0	 1.04606	 100.0	 1	 19.5	 0.0	 0.0	 0.0	 0.0	 0.0	 0.0	 0.0	 0.0	 0.0	 0.0	 0.0	 0.0;
	732	 39.0	 5.485	 18.0	 -18.0	 1.05679	 100.0	 1	 39.0	 0.0	 0.0	 0.0	 0.0	 0.0	 0.0	 0.0	 0.0	 0.0	 0.0	 0.0	 0.0;
	733	 6.55	 0.0	 0.0	 0.0	 1.045	 100.0	 1	 11.5	 0.0	 0.0	 0.0	 0.0	 0.0	 0.0	 0.0	 0.0	 0.0	 0.0	 0.0	 0.0;
	733	 21.555	 0.0	 0.0	 0.0	 1.045	 100.0	 1	 32.0	 0.0	 0.0	 0.0	 0.0	 0.0	 0.0	 0.0	 0.0	 0.0	 0.0	 0.0	 0.0;
	735	 0.0	 0.0	 0.0	 0.0	 1.07677	 100.0	 0	 12.0	 0.0	 0.0	 0.0	 0.0	 0.0	 0.0	 0.0	 0.0	 0.0	 0.0	 0.0	 0.0;
	735	 32.0	 0.0	 0.0	 0.0	 1.07677	 100.0	 1	 32.0	 0.0	 0.0	 0.0	 0.0	 0.0	 0.0	 0.0	 0.0	 0.0	 0.0	 0.0	 0.0;
	736	 5.0	 -0.1	 0.1	 -0.1	 1.0488	 100.0	 1	 5.0	 0.0	 0.0	 0.0	 0.0	 0.0	 0.0	 0.0	 0.0	 0.0	 0.0	 0.0	 0.0;
	743	 6.7	 0.358	 3.72	 -3.7	 1.05925	 100.0	 1	 6.7	 0.0	 0.0	 0.0	 0.0	 0.0	 0.0	 0.0	 0.0	 0.0	 0.0	 0.0	 0.0;
	743	 5.6	 0.228	 3.0	 -3.0	 1.05925	 100.0	 1	 5.6	 0.0	 0.0	 0.0	 0.0	 0.0	 0.0	 0.0	 0.0	 0.0	 0.0	 0.0	 0.0;
	744	 19.196	 2.0	 15.0	 -19.76	 1.06189	 100.0	 1	 26.6	 0.0	 0.0	 0.0	 0.0	 0.0	 0.0	 0.0	 0.0	 0.0	 0.0	 0.0	 0.0;
	745	 7.0	 2.0	 2.0	 -2.0	 1.01378	 100.0	 1	 7.0	 1.0	 0.0	 0.0	 0.0	 0.0	 0.0	 0.0	 0.0	 0.0	 0.0	 0.0	 0.0;
	750	 0.0	 -2.78	 3.0	 -3.0	 1.01472	 100.0	 0	 5.0	 -5.0	 0.0	 0.0	 0.0	 0.0	 0.0	 0.0	 0.0	 0.0	 0.0	 0.0	 0.0;
	757	 0.0	 1.81	 8.0	 -8.0	 1.07866	 100.0	 0	 23.5	 0.0	 0.0	 0.0	 0.0	 0.0	 0.0	 0.0	 0.0	 0.0	 0.0	 0.0	 0.0;
	759	 0.0	 0.0	 0.0	 0.0	 1.06349	 100.0	 0	 6.0	 0.0	 0.0	 0.0	 0.0	 0.0	 0.0	 0.0	 0.0	 0.0	 0.0	 0.0	 0.0;
	760	 0.0	 0.0	 0.0	 0.0	 1.05849	 100.0	 0	 6.0	 0.0	 0.0	 0.0	 0.0	 0.0	 0.0	 0.0	 0.0	 0.0	 0.0	 0.0	 0.0;
	759	 37.5	 -6.0	 10.0	 -6.0	 1.06349	 100.0	 1	 37.5	 0.0	 0.0	 0.0	 0.0	 0.0	 0.0	 0.0	 0.0	 0.0	 0.0	 0.0	 0.0;
	760	 37.5	 -6.0	 10.0	 -6.0	 1.05849	 100.0	 1	 37.5	 0.0	 0.0	 0.0	 0.0	 0.0	 0.0	 0.0	 0.0	 0.0	 0.0	 0.0	 0.0;
	761	 0.0	 0.06	 0.06	 -0.06	 0.57315	 100.0	 0	 0.6	 0.0	 0.0	 0.0	 0.0	 0.0	 0.0	 0.0	 0.0	 0.0	 0.0	 0.0	 0.0;
	761	 10.562	 -1.408	 2.61	 -2.61	 0.57315	 100.0	 1	 26.1	 0.0	 0.0	 0.0	 0.0	 0.0	 0.0	 0.0	 0.0	 0.0	 0.0	 0.0	 0.0;
	761	 0.0	 0.16	 0.16	 -0.16	 0.57315	 100.0	 0	 1.6	 0.0	 0.0	 0.0	 0.0	 0.0	 0.0	 0.0	 0.0	 0.0	 0.0	 0.0	 0.0;
	761	 0.0	 0.11	 0.11	 -0.11	 0.57315	 100.0	 0	 1.1	 0.0	 0.0	 0.0	 0.0	 0.0	 0.0	 0.0	 0.0	 0.0	 0.0	 0.0	 0.0;
	765	 0.0	 0.0	 0.0	 0.0	 1.04992	 100.0	 0	 37.5	 0.0	 0.0	 0.0	 0.0	 0.0	 0.0	 0.0	 0.0	 0.0	 0.0	 0.0	 0.0;
	765	 28.951	 0.0	 0.0	 0.0	 1.04992	 100.0	 1	 34.0	 0.0	 0.0	 0.0	 0.0	 0.0	 0.0	 0.0	 0.0	 0.0	 0.0	 0.0	 0.0;
	785	 0.0	 -0.29	 26.0	 -26.0	 1.05758	 100.0	 0	 8.0	 0.0	 0.0	 0.0	 0.0	 0.0	 0.0	 0.0	 0.0	 0.0	 0.0	 0.0	 0.0;
	785	 0.0	 -0.29	 26.0	 -26.0	 1.05758	 100.0	 0	 15.0	 0.0	 0.0	 0.0	 0.0	 0.0	 0.0	 0.0	 0.0	 0.0	 0.0	 0.0	 0.0;
	786	 0.0	 -0.33	 26.0	 -26.0	 1.06228	 100.0	 0	 19.0	 0.0	 0.0	 0.0	 0.0	 0.0	 0.0	 0.0	 0.0	 0.0	 0.0	 0.0	 0.0;
	800	 21.552	 0.893	 15.0	 -17.0	 1.07729	 100.0	 1	 31.0	 0.0	 0.0	 0.0	 0.0	 0.0	 0.0	 0.0	 0.0	 0.0	 0.0	 0.0	 0.0;
	800	 21.552	 0.893	 15.0	 -17.0	 1.07729	 100.0	 1	 31.0	 0.0	 0.0	 0.0	 0.0	 0.0	 0.0	 0.0	 0.0	 0.0	 0.0	 0.0	 0.0;
	801	 25.23	 1.755	 15.0	 -17.0	 1.07827	 100.0	 1	 31.0	 0.0	 0.0	 0.0	 0.0	 0.0	 0.0	 0.0	 0.0	 0.0	 0.0	 0.0	 0.0;
	801	 25.23	 1.755	 15.0	 -17.0	 1.07827	 100.0	 1	 31.0	 0.0	 0.0	 0.0	 0.0	 0.0	 0.0	 0.0	 0.0	 0.0	 0.0	 0.0	 0.0;
	802	 25.23	 1.755	 15.0	 -17.0	 1.07827	 100.0	 1	 31.0	 0.0	 0.0	 0.0	 0.0	 0.0	 0.0	 0.0	 0.0	 0.0	 0.0	 0.0	 0.0;
	802	 25.23	 1.755	 15.0	 -17.0	 1.07827	 100.0	 1	 31.0	 0.0	 0.0	 0.0	 0.0	 0.0	 0.0	 0.0	 0.0	 0.0	 0.0	 0.0	 0.0;
	806	 40.8	 0.0	 0.0	 0.0	 1.07851	 100.0	 1	 40.8	 0.0	 0.0	 0.0	 0.0	 0.0	 0.0	 0.0	 0.0	 0.0	 0.0	 0.0	 0.0;
	814	 32.0	 -5.058	 6.0	 -9.0	 1.04627	 100.0	 1	 32.0	 1.0	 0.0	 0.0	 0.0	 0.0	 0.0	 0.0	 0.0	 0.0	 0.0	 0.0	 0.0;
	814	 0.0	 0.0	 6.0	 -9.0	 1.04627	 100.0	 0	 32.0	 1.0	 0.0	 0.0	 0.0	 0.0	 0.0	 0.0	 0.0	 0.0	 0.0	 0.0	 0.0;
	815	 21.049	 1.188	 6.0	 -9.0	 1.051	 100.0	 1	 32.0	 1.0	 0.0	 0.0	 0.0	 0.0	 0.0	 0.0	 0.0	 0.0	 0.0	 0.0	 0.0;
	815	 21.049	 1.188	 6.0	 -9.0	 1.051	 100.0	 1	 32.0	 1.0	 0.0	 0.0	 0.0	 0.0	 0.0	 0.0	 0.0	 0.0	 0.0	 0.0	 0.0;
	815	 21.049	 1.188	 6.0	 -9.0	 1.051	 100.0	 1	 32.0	 1.0	 0.0	 0.0	 0.0	 0.0	 0.0	 0.0	 0.0	 0.0	 0.0	 0.0	 0.0;
	815	 21.049	 1.188	 6.0	 -9.0	 1.051	 100.0	 1	 32.0	 1.0	 0.0	 0.0	 0.0	 0.0	 0.0	 0.0	 0.0	 0.0	 0.0	 0.0	 0.0;
	825	 0.0	 1.35	 3.0	 -3.0	 1.03687	 100.0	 0	 13.0	 0.0	 0.0	 0.0	 0.0	 0.0	 0.0	 0.0	 0.0	 0.0	 0.0	 0.0	 0.0;
	825	 7.0	 -2.783	 3.0	 -3.0	 1.03687	 100.0	 1	 7.0	 0.0	 0.0	 0.0	 0.0	 0.0	 0.0	 0.0	 0.0	 0.0	 0.0	 0.0	 0.0;
	828	 0.0	 0.0	 0.0	 0.0	 1.07058	 100.0	 0	 2.4	 0.0	 0.0	 0.0	 0.0	 0.0	 0.0	 0.0	 0.0	 0.0	 0.0	 0.0	 0.0;
	829	 27.0	 10.0	 10.0	 -10.0	 1.07536	 100.0	 1	 27.0	 0.0	 0.0	 0.0	 0.0	 0.0	 0.0	 0.0	 0.0	 0.0	 0.0	 0.0	 0.0;
	830	 0.0	 -2.71	 10.0	 -10.0	 0.96902	 100.0	 0	 20.0	 0.0	 0.0	 0.0	 0.0	 0.0	 0.0	 0.0	 0.0	 0.0	 0.0	 0.0	 0.0;
	832	 0.0	 1.34	 3.14	 -3.43	 1.04972	 100.0	 0	 9.8	 0.0	 0.0	 0.0	 0.0	 0.0	 0.0	 0.0	 0.0	 0.0	 0.0	 0.0	 0.0;
...
];

%% generator cost data
%	2	startup	shutdown	n	c(n-1)	...	c0
mpc.gencost = [
	2	 0.0	 0.0	 3	   0.000000	   2.000000	   0.000000;
	2	 0.0	 0.0	 3	   0.000000	   2.000000	   0.000000;
	2	 0.0	 0.0	 3	   0.000000	   1.000000	   0.000000;
	2	 0.0	 0.0	 3	   0.000000	   2.000000	   0.000000;
	2	 0.0	 0.0	 3	   0.000000	   2.000000	   0.000000;
	2	 0.0	 0.0	 3	   0.000000	   1.000000	   0.000000;
	2	 0.0	 0.0	 3	   0.000000	   2.000000	   0.000000;
	2	 0.0	 0.0	 3	   0.000000	   2.000000	   0.000000;
	2	 0.0	 0.0	 3	   0.000000	   2.000000	   0.000000;
	2	 0.0	 0.0	 3	   0.000000	   1.000000	   0.000000;
	2	 0.0	 0.0	 3	   0.000000	   1.000000	   0.000000;
	2	 0.0	 0.0	 3	   0.000000	   2.000000	   0.000000;
	2	 0.0	 0.0	 3	   0.000000	   2.000000	   0.000000;
	2	 0.0	 0.0	 3	   0.000000	   1.000000	   0.000000;
	2	 0.0	 0.0	 3	   0.000000	   2.000000	   0.000000;
	2	 0.0	 0.0	 3	   0.000000	   1.000000	   0.000000;
	2	 0.0	 0.0	 3	   0.000000	   1.000000	   0.000000;
	2	 0.0	 0.0	 3	   0.000000	   2.000000	   0.000000;
	2	 0.0	 0.0	 3	   0.000000	   2.000000	   0.000000;
	2	 0.0	 0.0	 3	   0.000000	   1.000000	   0.000000;
	2	 0.0	 0.0	 3	   0.000000	   1.000000	   0.000000;
	2	 0.0	 0.0	 3	   0.000000	   1.000000	   0.000000;
	2	 0.0	 0.0	 3	   0.000000	   2.000000	   0.000000;
	2	 0.0	 0.0	 3	   0.000000	   1.000000	   0.000000;
	2	 0.0	 0.0	 3	   0.000000	   1.000000	   0.000000;
	2	 0.0	 0.0	 3	   0.000000	   1.000000	   0.000000;
	2	 0.0	 0.0	 3	   0.000000	   1.000000	   0.000000;
	2	 0.0	 0.0	 3	   0.000000	   1.000000	   0.000000;
	2	 0.0	 0.0	 3	   0.000000	   1.000000	   0.000000;
	2	 0.0	 0.0	 3	   0.000000	   1.000000	   0.000000;
	2	 0.0	 0.0	 3	   0.000000	   2.000000	   0.000000;
	2	 0.0	 0.0	 3	   0.000000	   2.000000	   0.000000;
	2	 0.0	 0.0	 3	   0.000000	   2.000000	   0.000000;
	2	 0.0	 0.0	 3	   0.000000	   2.000000	   0.000000;
	2	 0.0	 0.0	 3	   0.000000	   1.000000	   0.000000;
	2	 0.0	 0.0	 3	   0.000000	   2.000000	   0.000000;
	2	 0.0	 0.0	 3	   0.000000	   1.000000	   0.000000;
	2	 0.0	 0.0	 3	   0.000000	   2.000000	   0.000000;
	2	 0.0	 0.0	 3	   0.000000	   2.000000	   0.000000;
	2	 0.0	 0.0	 3	   0.000000	   2.000000	   0.000000;
	2	 0.0	 0.0	 3	   0.000000	   2.000000	   0.000000;
	2	 0.0	 0.0	 3	   0.000000	   2.000000	   0.000000;
	2	 0.0	 0.0	 3	   0.000000	   2.000000	   0.000000;
	2	 0.0	 0.0	 3	   0.000000	   1.000000	   0.000000;
	2	 0.0	 0.0	 3	   0.000000	   1.000000	   0.000000;
	2	 0.0	 0.0	 3	   0.000000	   1.000000	   0.000000;
	2	 0.0	 0.0	 3	   0.000000	   2.000000	   0.000000;
	2	 0.0	 0.0	 3	   0.000000	   1.000000	   0.000000;
	2	 0.0	 0.0	 3	   0.000000	   1.000000	   0.000000;
	2	 0.0	 0.0	 3	   0.000000	   1.000000	   0.000000;
	2	 0.0	 0.0	 3	   0.000000	   2.000000	   0.000000;
	2	 0.0	 0.0	 3	   0.000000	   1.000000	   0.000000;
	2	 0.0	 0.0	 3	   0.000000	   2.000000	   0.000000;
	2	 0.0	 0.0	 3	   0.000000	   2.000000	   0.000000;
	2	 0.0	 0.0	 3	   0.000000	   2.000000	   0.000000;
	2	 0.0	 0.0	 3	   0.000000	   2.000000	   0.000000;
	2	 0.0	 0.0	 3	   0.000000	   2.000000	   0.000000;
	2	 0.0	 0.0	 3	   0.000000	   2.000000	   0.000000;
	2	 0.0	 0.0	 3	   0.000000	   1.000000	   0.000000;
	2	 0.0	 0.0	 3	   0.000000	   1.000000	   0.000000;
	2	 0.0	 0.0	 3	   0.000000	   2.000000	   0.000000;
	2	 0.0	 0.0	 3	   0.000000	   2.000000	   0.000000;
	2	 0.0	 0.0	 3	   0.000000	   2.000000	   0.000000;
	2	 0.0	 0.0	 3	   0.000000	   2.000000	   0.000000;
	2	 0.0	 0.0	 3	   0.000000	   1.000000	   0.000000;
	2	 0.0	 0.0	 3	   0.000000	   1.000000	   0.000000;
	2	 0.0	 0.0	 3	   0.000000	   1.000000	   0.000000;
	2	 0.0	 0.0	 3	   0.000000	   2.000000	   0.000000;
	2	 0.0	 0.0	 3	   0.000000	   2.000000	   0.000000;
	2	 0.0	 0.0	 3	   0.000000	   1.000000	   0.000000;
	2	 0.0	 0.0	 3	   0.000000	   2.000000	   0.000000;
	2	 0.0	 0.0	 3	   0.000000	   2.000000	   0.000000;
	2	 0.0	 0.0	 3	   0.000000	   1.000000	   0.000000;
	2	 0.0	 0.0	 3	   0.000000	   1.000000	   0.000000;
	2	 0.0	 0.0	 3	   0.000000	   2.000000	   0.000000;
	2	 0.0	 0.0	 3	   0.000000	   2.000000	   0.000000;
	2	 0.0	 0.0	 3	   0.000000	   2.000000	   0.000000;
	2	 0.0	 0.0	 3	   0.000000	   1.000000	   0.000000;
	2	 0.0	 0.0	 3	   0.000000	   2.000000	   0.000000;
	2	 0.0	 0.0	 3	   0.000000	   2.000000	   0.000000;
	2	 0.0	 0.0	 3	   0.000000	   1.000000	   0.000000;
	2	 0.0	 0.0	 3	   0.000000	   1.000000	   0.000000;
	2	 0.0	 0.0	 3	   0.000000	   1.000000	   0.000000;
	2	 0.0	 0.0	 3	   0.000000	   2.000000	   0.000000;
	2	 0.0	 0.0	 3	   0.000000	   1.000000	   0.000000;
	2	 0.0	 0.0	 3	   0.000000	   1.000000	   0.000000;
	2	 0.0	 0.0	 3	   0.000000	   2.000000	   0.000000;
	2	 0.0	 0.0	 3	   0.000000	   2.000000	   0.000000;
	2	 0.0	 0.0	 3	   0.000000	   2.000000	   0.000000;
	2	 0.0	 0.0	 3	   0.000000	   2.000000	   0.000000;
	2	 0.0	 0.0	 3	   0.000000	   1.000000	   0.000000;
	2	 0.0	 0.0	 3	   0.000000	   1.000000	   0.000000;
	2	 0.0	 0.0	 3	   0.000000	   1.000000	   0.000000;
	2	 0.0	 0.0	 3	   0.000000	   1.000000	   0.000000;
	2	 0.0	 0.0	 3	   0.000000	   2.000000	   0.000000;
	2	 0.0	 0.0	 3	   0.000000	   2.000000	   0.000000;
	2	 0.0	 0.0	 3	   0.000000	   2.000000	   0.000000;
	2	 0.0	 0.0	 3	   0.000000	   2.000000	   0.000000;
	2	 0.0	 0.0	 3	   0.000000	   2.000000	   0.000000;
	2	 0.0	 0.0	 3	   0.000000	   2.000000	   0.000000;
	2	 0.0	 0.0	 3	   0.000000	   2.000000	   0.000000;
	2	 0.0	 0.0	 3	   0.000000	   2.000000	   0.000000;
	2	 0.0	 0.0	 3	   0.000000	   1.000000	   0.000000;
	2	 0.0	 0.0	 3	   0.000000	   2.000000	   0.000000;
	2	 0.0	 0.0	 3	   0.000000	   2.000000	   0.000000;
	2	 0.0	 0.0	 3	   0.000000	   1.000000	   0.000000;
	2	 0.0	 0.0	 3	   0.000000	   1.000000	   0.000000;
	2	 0.0	 0.0	 3	   0.000000	   1.000000	   0.000000;
	2	 0.0	 0.0	 3	   0.000000	   1.000000	   0.000000;
	2	 0.0	 0.0	 3	   0.000000	   2.000000	   0.000000;
	2	 0.0	 0.0	 3	   0.000000	   1.000000	   0.000000;
	2	 0.0	 0.0	 3	   0.000000	   1.000000	   0.000000;
	2	 0.0	 0.0	 3	   0.000000	   1.000000	   0.000000;
	2	 0.0	 0.0	 3	   0.000000	   1.000000	   0.000000;
	2	 0.0	 0.0	 3	   0.000000	   1.000000	   0.000000;
	2	 0.0	 0.0	 3	   0.000000	   1.000000	   0.000000;
	2	 0.0	 0.0	 3	   0.000000	   2.000000	   0.000000;
	2	 0.0	 0.0	 3	   0.000000	   2.000000	   0.000000;
	2	 0.0	 0.0	 3	   0.000000	   2.000000	   0.000000;
	2	 0.0	 0.0	 3	   0.000000	   1.000000	   0.000000;
	2	 0.0	 0.0	 3	   0.000000	   2.000000	   0.000000;
	2	 0.0	 0.0	 3	   0.000000	   1.000000	   0.000000;
	2	 0.0	 0.0	 3	   0.000000	   1.000000	   0.000000;
	2	 0.0	 0.0	 3	   0.000000	   1.000000	   0.000000;
	2	 0.0	 0.0	 3	   0.000000	   1.000000	   0.000000;
	2	 0.0	 0.0	 3	   0.000000	   2.000000	   0.000000;
	2	 0.0	 0.0	 3	   0.000000	   1.000000	   0.000000;
	2	 0.0	 0.0	 3	   0.000000	   2.000000	   0.000000;
	2	 0.0	 0.0	 3	   0.000000	   2.000000	   0.000000;
	2	 0.0	 0.0	 3	   0.000000	   1.000000	   0.000000;
	2	 0.0	 0.0	 3	   0.000000	   1.000000	   0.000000;
	2	 0.0	 0.0	 3	   0.000000	   2.000000	   0.000000;
	2	 0.0	 0.0	 3	   0.000000	   1.000000	   0.000000;
	2	 0.0	 0.0	 3	   0.000000	   1.000000	   0.000000;
	2	 0.0	 0.0	 3	   0.000000	   1.000000	   0.000000;
	2	 0.0	 0.0	 3	   0.000000	   1.000000	   0.000000;
	2	 0.0	 0.0	 3	   0.000000	   2.000000	   0.000000;
	2	 0.0	 0.0	 3	   0.000000	   1.000000	   0.000000;
	2	 0.0	 0.0	 3	   0.000000	   1.000000	   0.000000;
	2	 0.0	 0.0	 3	   0.000000	   1.000000	   0.000000;
	2	 0.0	 0.0	 3	   0.000000	   2.000000	   0.000000;
	2	 0.0	 0.0	 3	   0.000000	   1.000000	   0.000000;
	2	 0.0	 0.0	 3	   0.000000	   1.000000	   0.000000;
	2	 0.0	 0.0	 3	   0.000000	   1.000000	   0.000000;
	2	 0.0	 0.0	 3	   0.000000	   1.000000	   0.000000;
	2	 0.0	 0.0	 3	   0.000000	   1.000000	   0.000000;
	2	 0.0	 0.0	 3	   0.000000	   1.000000	   0.000000;
	2	 0.0	 0.0	 3	   0.000000	   1.000000	   0.000000;
	2	 0.0	 0.0	 3	   0.000000	   1.000000	   0.000000;
	2	 0.0	 0.0	 3	   0.000000	   1.000000	   0.000000;
	2	 0.0	 0.0	 3	   0.000000	   1.000000	   0.000000;
	2	 0.0	 0.0	 3	   0.000000	   1.000000	   0.000000;
	2	 0.0	 0.0	 3	   0.000000	   1.000000	   0.000000;
	2	 0.0	 0.0	 3	   0.000000	   1.000000	   0.000000;
	2	 0.0	 0.0	 3	   0.000000	   2.000000	   0.000000;
	2	 0.0	 0.0	 3	   0.000000	   1.000000	   0.000000;
	2	 0.0	 0.0	 3	   0.000000	   1.000000	   0.000000;
	2	 0.0	 0.0	 3	   0.000000	   1.000000	   0.000000;
	2	 0.0	 0.0	 3	   0.000000	   1.000000	   0.000000;
	2	 0.0	 0.0	 3	   0.000000	   2.000000	   0.000000;
	2	 0.0	 0.0	 3	   0.000000	   1.000000	   0.000000;
	2	 0.0	 0.0	 3	   0.000000	   1.000000	   0.000000;
	2	 0.0	 0.0	 3	   0.000000	   1.000000	   0.000000;
	2	 0.0	 0.0	 3	   0.000000	   1.000000	   0.000000;
	2	 0.0	 0.0	 3	   0.000000	   1.000000	   0.000000;
	2	 0.0	 0.0	 3	   0.000000	   1.000000	   0.000000;
	2	 0.0	 0.0	 3	   0.000000	   2.000000	   0.000000;
	2	 0.0	 0.0	 3	   0.000000	   2.000000	   0.000000;
	2	 0.0	 0.0	 3	   0.000000	   2.000000	   0.000000;
	2	 0.0	 0.0	 3	   0.000000	   2.000000	   0.000000;
	2	 0.0	 0.0	 3	   0.000000	   1.000000	   0.000000;
	2	 0.0	 0.0	 3	   0.000000	   1.000000	   0.000000;
	2	 0.0	 0.0	 3	   0.000000	   2.000000	   0.000000;
	2	 0.0	 0.0	 3	   0.000000	   1.000000	   0.000000;
	2	 0.0	 0.0	 3	   0.000000	   2.000000	   0.000000;
	2	 0.0	 0.0	 3	   0.000000	   2.000000	   0.000000;
	2	 0.0	 0.0	 3	   0.000000	   2.000000	   0.000000;
	2	 0.0	 0.0	 3	   0.000000	   1.000000	   0.000000;
	2	 0.0	 0.0	 3	   0.000000	   2.000000	   0.000000;
	2	 0.0	 0.0	 3	   0.000000	   2.000000	   0.000000;
	2	 0.0	 0.0	 3	   0.000000	   2.000000	   0.000000;
	2	 0.0	 0.0	 3	   0.000000	   1.000000	   0.000000;
	2	 0.0	 0.0	 3	   0.000000	   1.000000	   0.000000;
	2	 0.0	 0.0	 3	   0.000000	   1.000000	   0.000000;
	2	 0.0	 0.0	 3	   0.000000	   1.000000	   0.000000;
	2	 0.0	 0.0	 3	   0.000000	   1.000000	   0.000000;
	2	 0.0	 0.0	 3	   0.000000	   1.000000	   0.000000;
	2	 0.0	 0.0	 3	   0.000000	   1.000000	   0.000000;
	2	 0.0	 0.0	 3	   0.000000	   1.000000	   0.000000;
	2	 0.0	 0.0	 3	   0.000000	   2.000000	   0.000000;
	2	 0.0	 0.0	 3	   0.000000	   1.000000	   0.000000;
	2	 0.0	 0.0	 3	   0.000000	   1.000000	   0.000000;
	2	 0.0	 0.0	 3	   0.000000	   1.000000	   0.000000;
	2	 0.0	 0.0	 3	   0.000000	   1.000000	   0.000000;
	2	 0.0	 0.0	 3	   0.000000	   2.000000	   0.000000;
	2	 0.0	 0.0	 3	   0.000000	   1.000000	   0.000000;
	2	 0.0	 0.0	 3	   0.000000	   2.000000	   0.000000;
	2	 0.0	 0.0	 3	   0.000000	   1.000000	   0.000000;
	2	 0.0	 0.0	 3	   0.000000	   2.000000	   0.000000;
	2	 0.0	 0.0	 3	   0.000000	   2.000000	   0.000000;
...
];

%% branch data
%	fbus	tbus	r	x	b	rateA	rateB	rateC	ratio	angle	status	angmin	angmax
mpc.branch = [
	4644	 1	 0.005726	 0.010482	 0.0	 2186	 2186	 2186	 1.0	 0.0	 1	 -30.0	 30.0;
	5243	 1	 0.01284	 0.025679	 0.0	 910	 910	 910	 1.0	 0.0	 1	 -30.0	 30.0;
	1682	 2	 0.005799	 0.010615	 0.0075	 2441	 2441	 2441	 1.0	 0.0	 1	 -30.0	 30.0;
	1673	 3	 0.134039	 0.309398	 0.0035	 91	 91	 91	 1.0	 0.0	 1	 -30.0	 30.0;
	2302	 3	 0.049131	 0.133283	 0.0015	 215	 215	 215	 1.0	 0.0	 1	 -30.0	 30.0;
	694	 4	 0.025926	 0.109136	 0.0002	 281	 281	 281	 1.0	 0.0	 1	 -30.0	 30.0;
	3940	 4	 0.05	 0.126914	 0.0006	 226	 226	 226	 1.0	 0.0	 1	 -30.0	 30.0;
	5043	 4	 0.02321	 0.097407	 0.0016	 315	 315	 315	 1.0	 0.0	 1	 -30.0	 30.0;
	4414	 5	 0.040564	 0.113631	 0.0013	 245	 245	 245	 1.0	 0.0	 1	 -30.0	 30.0;
	2780	 6	 0.006047	 0.020912	 0.0222	 1398	 1398	 1398	 1.0	 0.0	 1	 -30.0	 30.0;
	2781	 7	 0.012472	 0.032099	 0.0061	 884	 884	 884	 1.0	 0.0	 1	 -30.0	 30.0;
	2468	 8	 0.002607	 0.017462	 0.0324	 540.0	 540.0	 540.0	 1.0	 0.0	 1	 -30.0	 30.0;
	471	 9	 0.053893	 0.14258	 0.0017	 194	 194	 194	 1.0	 0.0	 1	 -30.0	 30.0;
	11	 10	 0.000247	 0.001235	 0.0005	 24078	 24078	 24078	 1.0	 0.0	 1	 -30.0	 30.0;
	11	 10	 0.000247	 0.001235	 0.0002	 24078	 24078	 24078	 1.0	 0.0	 1	 -30.0	 30.0;
	30	 11	 0.039753	 0.100988	 0.0047	 284	 284	 284	 1.0	 0.0	 1	 -30.0	 30.0;
	2930	 11	 0.037654	 0.096173	 0.001	 294	 294	 294	 1.0	 0.0	 1	 -30.0	 30.0;
	2180	 12	 0.014613	 0.060721	 0.0008	 487	 487	 487	 1.0	 0.0	 1	 -30.0	 30.0;
	4018	 12	 0.034064	 0.121139	 0.0015	 242	 242	 242	 1.0	 0.0	 1	 -30.0	 30.0;
	4020	 12	 0.000242	 0.000442	 0.0004	 60355	 60355	 60355	 1.0	 0.0	 1	 -30.0	 30.0;
	115	 13	 2.1e-05	 0.000125	 0.1386	 737.0	 737.0	 737.0	 1.0	 0.0	 1	 -30.0	 30.0;
	2336	 13	 0.000145	 0.001877	 0.0635	 2487.0	 2487.0	 2487.0	 1.0	 0.0	 1	 -30.0	 30.0;
	4574	 13	 0.000319	 0.003234	 0.0838	 1841.0	 1841.0	 1841.0	 1.0	 0.0	 1	 -30.0	 30.0;
	116	 13	 2.1e-05	 0.000125	 0.1386	 737.0	 737.0	 737.0	 1.0	 0.0	 1	 -30.0	 30.0;
	1224	 14	 0.04	 0.134198	 0.0274	 217	 217	 217	 1.0	 0.0	 1	 -30.0	 30.0;
	2875	 14	 0.012222	 0.052346	 0.0026	 565	 565	 565	 1.0	 0.0	 1	 -30.0	 30.0;
	4592	 14	 0.007284	 0.045432	 0.0024	 660	 660	 660	 1.0	 0.0	 1	 -30.0	 30.0;
	4950	 14	 0.059963	 0.154222	 0.0236	 184	 184	 184	 1.0	 0.0	 1	 -30.0	 30.0;
	5229	 14	 0.018025	 0.110988	 0.0073	 270	 270	 270	 1.0	 0.0	 1	 -30.0	 30.0;
	2875	 14	 0.012222	 0.052593	 0.0032	 562	 562	 562	 1.0	 0.0	 1	 -30.0	 30.0;
	4592	 14	 0.007284	 0.044938	 0.0024	 667	 667	 667	 1.0	 0.0	 1	 -30.0	 30.0;
	2907	 15	 0.037541	 0.100529	 0.0011	 284	 284	 284	 1.0	 0.0	 1	 -30.0	 30.0;
	4126	 15	 0.090199	 0.211388	 0.0023	 133	 133	 133	 1.0	 0.0	 1	 -30.0	 30.0;
	4454	 15	 0.09801	 0.267574	 0.0	 107	 107	 107	 1.0	 0.0	 1	 -30.0	 30.0;
	251	 16	 0.071806	 0.191484	 0.0019	 149	 149	 149	 1.0	 0.0	 1	 -30.0	 30.0;
	339	 16	 0.119174	 0.284958	 0.0044	 99	 99	 99	 1.0	 0.0	 1	 -30.0	 30.0;
	5835	 17	 0.022346	 0.061111	 0.0029	 457	 457	 457	 1.0	 0.0	 1	 -30.0	 30.0;
	3728	 18	 0.009383	 0.019753	 0.0	 1194	 1194	 1194	 1.0	 0.0	 1	 -30.0	 30.0;
	5091	 19	 0.000252	 0.000504	 0.0	 52398	 52398	 52398	 1.0	 0.0	 1	 -30.0	 30.0;
	3728	 20	 0.001975	 0.004444	 0.0	 5369	 5369	 5369	 1.0	 0.0	 1	 -30.0	 30.0;
	1353	 21	 0.036296	 0.099012	 0.0045	 282	 282	 282	 1.0	 0.0	 1	 -30.0	 30.0;
	1598	 21	 0.032716	 0.089136	 0.0057	 313	 313	 313	 1.0	 0.0	 1	 -30.0	 30.0;
	1842	 22	 0.138574	 0.351474	 0.0058	 81	 81	 81	 1.0	 0.0	 1	 -30.0	 30.0;
	5020	 22	 0.094407	 0.210456	 0.0044	 132	 132	 132	 1.0	 0.0	 1	 -30.0	 30.0;
	1156	 23	 0.047115	 0.117158	 0.001	 234	 234	 234	 1.0	 0.0	 1	 -30.0	 30.0;
	2705	 23	 0.039557	 0.120937	 0.0132	 233	 233	 233	 1.0	 0.0	 1	 -30.0	 30.0;
	3425	 23	 0.022676	 0.062484	 0.0007	 445	 445	 445	 1.0	 0.0	 1	 -30.0	 30.0;
	144	 24	 0.064568	 0.16716	 0.0113	 180	 180	 180	 1.0	 0.0	 1	 -30.0	 30.0;
	1281	 24	 0.048605	 0.128481	 0.0062	 235	 235	 235	 1.0	 0.0	 1	 -30.0	 30.0;
	491	 25	 0.004815	 0.02963	 0.0016	 1048	 1048	 1048	 1.0	 0.0	 1	 -30.0	 30.0;
	2092	 25	 0.007309	 0.04463	 0.0073	 710	 710	 710	 1.0	 0.0	 1	 -30.0	 30.0;
	611	 26	 0.034321	 0.145802	 0.0073	 199	 199	 199	 1.0	 0.0	 1	 -30.0	 30.0;
	1865	 26	 0.004815	 0.009753	 0.0005	 2731	 2731	 2731	 1.0	 0.0	 1	 -30.0	 30.0;
	2604	 26	 0.049012	 0.133704	 0.0063	 209	 209	 209	 1.0	 0.0	 1	 -30.0	 30.0;
	2923	 26	 0.04642	 0.126543	 0.0058	 221	 221	 221	 1.0	 0.0	 1	 -30.0	 30.0;
	3339	 26	 0.046296	 0.125926	 0.006	 222	 222	 222	 1.0	 0.0	 1	 -30.0	 30.0;
	4629	 26	 0.053704	 0.136753	 0.0065	 203	 203	 203	 1.0	 0.0	 1	 -30.0	 30.0;
	2923	 26	 0.03358	 0.120988	 0.0062	 237	 237	 237	 1.0	 0.0	 1	 -30.0	 30.0;
	534	 27	 0.006163	 0.041067	 0.0759	 446.0	 446.0	 446.0	 1.0	 0.0	 1	 -30.0	 30.0;
	2349	 27	 0.000652	 0.004369	 0.0081	 558.0	 558.0	 558.0	 1.0	 0.0	 1	 -30.0	 30.0;
	2686	 28	 0.050945	 0.131922	 0.0015	 216	 216	 216	 1.0	 0.0	 1	 -30.0	 30.0;
	3893	 28	 0.058781	 0.149005	 0.0017	 190	 190	 190	 1.0	 0.0	 1	 -30.0	 30.0;
	2888	 29	 0.067019	 0.137566	 0.0037	 193	 193	 193	 1.0	 0.0	 1	 -30.0	 30.0;
	3321	 29	 0.032754	 0.088939	 0.0039	 312	 312	 312	 1.0	 0.0	 1	 -30.0	 30.0;
	3321	 29	 0.030184	 0.080096	 0.0053	 345	 345	 345	 1.0	 0.0	 1	 -30.0	 30.0;
	144	 30	 0.066049	 0.187778	 0.0099	 161	 161	 161	 1.0	 0.0	 1	 -30.0	 30.0;
	1553	 30	 0.065062	 0.133704	 0.0062	 212	 212	 212	 1.0	 0.0	 1	 -30.0	 30.0;
	4836	 30	 0.041728	 0.106049	 0.005	 281	 281	 281	 1.0	 0.0	 1	 -30.0	 30.0;
	150	 31	 0.009574	 0.03875	 0.0114	 740	 740	 740	 1.0	 0.0	 1	 -30.0	 30.0;
	3162	 31	 0.000171	 0.000313	 0.0002	 82782	 82782	 82782	 1.0	 0.0	 1	 -30.0	 30.0;
	3693	 31	 0.034266	 0.09423	 0.001	 295	 295	 295	 1.0	 0.0	 1	 -30.0	 30.0;
	4740	 31	 0.006803	 0.028219	 0.0	 1018	 1018	 1018	 1.0	 0.0	 1	 -30.0	 30.0;
	150	 31	 0.008566	 0.037541	 0.0121	 767	 767	 767	 1.0	 0.0	 1	 -30.0	 30.0;
	3730	 32	 0.009733	 0.034089	 0.0185	 902	 902	 902	 1.0	 0.0	 1	 -30.0	 30.0;
	368	 34	 0.000277	 0.002015	 0.003	 288.0	 288.0	 288.0	 1.0	 0.0	 1	 -30.0	 30.0;
	1016	 33	 0.00881	 0.033995	 0.0607	 289.0	 289.0	 289.0	 1.0	 0.0	 1	 -30.0	 30.0;
	1157	 33	 0.004642	 0.019832	 0.0354	 255.0	 255.0	 255.0	 1.0	 0.0	 1	 -30.0	 30.0;
	2582	 34	 0.008861	 0.03506	 0.0623	 288.0	 288.0	 288.0	 1.0	 0.0	 1	 -30.0	 30.0;
	2706	 34	 0.006993	 0.032869	 0.0557	 255.0	 255.0	 255.0	 1.0	 0.0	 1	 -30.0	 30.0;
	4745	 33	 0.002173	 0.008731	 0.0152	 3441	 3441	 3441	 1.0	 0.0	 1	 -30.0	 30.0;
	4853	 34	 0.00077	 0.003121	 0.0051	 9629	 9629	 9629	 1.0	 0.0	 1	 -30.0	 30.0;
	5670	 33	 0.004109	 0.016138	 0.0284	 288.0	 288.0	 288.0	 1.0	 0.0	 1	 -30.0	 30.0;
...